(PID.TID 0000.0001) 
(PID.TID 0000.0001) // ======================================================
(PID.TID 0000.0001) //                      MITgcm UV
(PID.TID 0000.0001) //                      =========
(PID.TID 0000.0001) // ======================================================
(PID.TID 0000.0001) // execution environment starting up...
(PID.TID 0000.0001) 
(PID.TID 0000.0001) // MITgcmUV version:  checkpoint67v
(PID.TID 0000.0001) // Build user:        eavesr
(PID.TID 0000.0001) // Build host:        atmlxint3
(PID.TID 0000.0001) // Build date:        Mon 15 Feb 14:14:00 GMT 2021
(PID.TID 0000.0001) 
(PID.TID 0000.0001) // =======================================================
(PID.TID 0000.0001) // Execution Environment parameter file "eedata"
(PID.TID 0000.0001) // =======================================================
(PID.TID 0000.0001) ># Example "eedata" file
(PID.TID 0000.0001) ># Lines beginning "#" are comments
(PID.TID 0000.0001) >#  nTx      :: No. threads per process in X
(PID.TID 0000.0001) >#  nTy      :: No. threads per process in Y
(PID.TID 0000.0001) ># debugMode :: print debug msg (sequence of S/R calls)
(PID.TID 0000.0001) > &EEPARMS
(PID.TID 0000.0001) > nTx=1,
(PID.TID 0000.0001) > nTy=1,
(PID.TID 0000.0001) > &
(PID.TID 0000.0001) ># Note: Some systems use & as the namelist terminator (as shown here).
(PID.TID 0000.0001) >#       Other systems use a / character.
(PID.TID 0000.0001) 
(PID.TID 0000.0001) // =======================================================
(PID.TID 0000.0001) // Computational Grid Specification ( see files "SIZE.h" )
(PID.TID 0000.0001) //                                  ( and "eedata"       )
(PID.TID 0000.0001) // =======================================================
(PID.TID 0000.0001)      nPx =    1 ; /* No. processes in X */
(PID.TID 0000.0001)      nPy =    1 ; /* No. processes in Y */
(PID.TID 0000.0001)      nSx =    1 ; /* No. tiles in X per process */
(PID.TID 0000.0001)      nSy =    1 ; /* No. tiles in Y per process */
(PID.TID 0000.0001)      sNx =   62 ; /* Tile size in X */
(PID.TID 0000.0001)      sNy =   62 ; /* Tile size in Y */
(PID.TID 0000.0001)      OLx =    2 ; /* Tile overlap distance in X */
(PID.TID 0000.0001)      OLy =    2 ; /* Tile overlap distance in Y */
(PID.TID 0000.0001)      nTx =    1 ; /* No. threads in X per process */
(PID.TID 0000.0001)      nTy =    1 ; /* No. threads in Y per process */
(PID.TID 0000.0001)       Nr =    1 ; /* No. levels in the vertical   */
(PID.TID 0000.0001)       Nx =   62 ; /* Total domain size in X ( = nPx*nSx*sNx ) */
(PID.TID 0000.0001)       Ny =   62 ; /* Total domain size in Y ( = nPy*nSy*sNy ) */
(PID.TID 0000.0001)   nTiles =    1 ; /* Total no. tiles per process ( = nSx*nSy ) */
(PID.TID 0000.0001)   nProcs =    1 ; /* Total no. processes ( = nPx*nPy ) */
(PID.TID 0000.0001) nThreads =    1 ; /* Total no. threads per process ( = nTx*nTy ) */
(PID.TID 0000.0001) usingMPI =    F ; /* Flag used to control whether MPI is in use */
(PID.TID 0000.0001)                   /*  note: To execute a program with MPI calls */
(PID.TID 0000.0001)                   /*  it must be launched appropriately e.g     */
(PID.TID 0000.0001)                   /*  "mpirun -np 64 ......"                    */
(PID.TID 0000.0001) useCoupler=   F ; /* Flag used to control communications with   */
(PID.TID 0000.0001)                   /*  other model components, through a coupler */
(PID.TID 0000.0001) useNest2W_parent =    F ;/* Control 2-W Nesting comm */
(PID.TID 0000.0001) useNest2W_child  =    F ;/* Control 2-W Nesting comm */
(PID.TID 0000.0001) debugMode =    F ; /* print debug msg. (sequence of S/R calls)  */
(PID.TID 0000.0001) printMapIncludesZeros=    F ; /* print zeros in Std.Output maps */
(PID.TID 0000.0001) maxLengthPrt1D=   65 /* maxLength of 1D array printed to StdOut */
(PID.TID 0000.0001) 
(PID.TID 0000.0001) // ======================================================
(PID.TID 0000.0001) // Mapping of tiles to threads
(PID.TID 0000.0001) // ======================================================
(PID.TID 0000.0001) // -o- Thread   1, tiles (   1:   1,   1:   1)
(PID.TID 0000.0001) 
(PID.TID 0000.0001) // ======================================================
(PID.TID 0000.0001) // Tile <-> Tile connectvity table
(PID.TID 0000.0001) // ======================================================
(PID.TID 0000.0001) // Tile number: 000001 (process no. = 000000)
(PID.TID 0000.0001) //        WEST: Tile = 000001, Process = 000000, Comm = put
(PID.TID 0000.0001) //                bi = 000001, bj = 000001
(PID.TID 0000.0001) //        EAST: Tile = 000001, Process = 000000, Comm = put
(PID.TID 0000.0001) //                bi = 000001, bj = 000001
(PID.TID 0000.0001) //       SOUTH: Tile = 000001, Process = 000000, Comm = put
(PID.TID 0000.0001) //                bi = 000001, bj = 000001
(PID.TID 0000.0001) //       NORTH: Tile = 000001, Process = 000000, Comm = put
(PID.TID 0000.0001) //                bi = 000001, bj = 000001
(PID.TID 0000.0001) 
(PID.TID 0000.0001)  INI_PARMS: opening model parameter file "data"
(PID.TID 0000.0001)  OPEN_COPY_DATA_FILE: opening file data
(PID.TID 0000.0001) // =======================================================
(PID.TID 0000.0001) // Parameter file "data"
(PID.TID 0000.0001) // =======================================================
(PID.TID 0000.0001) ># Model parameters
(PID.TID 0000.0001) ># Continuous equation parameters
(PID.TID 0000.0001) > &PARM01
(PID.TID 0000.0001) > viscAh=4.E2,
(PID.TID 0000.0001) > f0=1.E-4,
(PID.TID 0000.0001) > beta=1.E-11,
(PID.TID 0000.0001) > rhoConst=1000.,
(PID.TID 0000.0001) > gBaro=9.81,
(PID.TID 0000.0001) > rigidLid=.FALSE.,
(PID.TID 0000.0001) > implicitFreeSurface=.TRUE.,
(PID.TID 0000.0001) ># momAdvection=.FALSE.,
(PID.TID 0000.0001) > tempStepping=.FALSE.,
(PID.TID 0000.0001) > saltStepping=.FALSE.,
(PID.TID 0000.0001) > useSingleCpuIO=.TRUE.,
(PID.TID 0000.0001) > hFacMin=0.1,
(PID.TID 0000.0001) > &
(PID.TID 0000.0001) >
(PID.TID 0000.0001) ># Elliptic solver parameters
(PID.TID 0000.0001) > &PARM02
(PID.TID 0000.0001) > cg2dTargetResidual=1.E-7,
(PID.TID 0000.0001) > cg2dMaxIters=1000,
(PID.TID 0000.0001) > &
(PID.TID 0000.0001) >
(PID.TID 0000.0001) ># Time stepping parameters
(PID.TID 0000.0001) > &PARM03
(PID.TID 0000.0001) > nIter0=0,
(PID.TID 0000.0001) > nTimeSteps=21600,
(PID.TID 0000.0001) > deltaT=1200.0,
(PID.TID 0000.0001) > pChkptFreq=31104000.0,
(PID.TID 0000.0001) > chkptFreq=25920000.0,
(PID.TID 0000.0001) > dumpFreq=86400.0,
(PID.TID 0000.0001) > monitorFreq=86400.,
(PID.TID 0000.0001) > monitorSelect=2,
(PID.TID 0000.0001) >#-for longer run (3.0 yr):
(PID.TID 0000.0001) ># nTimeSteps=77760,
(PID.TID 0000.0001) ># monitorFreq=864000.,
(PID.TID 0000.0001) > &
(PID.TID 0000.0001) >
(PID.TID 0000.0001) ># Gridding parameters
(PID.TID 0000.0001) > &PARM04
(PID.TID 0000.0001) > usingCartesianGrid=.TRUE.,
(PID.TID 0000.0001) > delX=62*20.E3,
(PID.TID 0000.0001) > delY=62*20.E3,
(PID.TID 0000.0001) > xgOrigin=-20.E3,
(PID.TID 0000.0001) > ygOrigin=-20.E3,
(PID.TID 0000.0001) > delR=5000.,
(PID.TID 0000.0001) > &
(PID.TID 0000.0001) >
(PID.TID 0000.0001) ># Input datasets
(PID.TID 0000.0001) > &PARM05
(PID.TID 0000.0001) > bathyFile='bathy.bin'
(PID.TID 0000.0001) > zonalWindFile='windx_cosy.bin',
(PID.TID 0000.0001) >#zonalWindFile='windx_siny.bin',
(PID.TID 0000.0001) > meridWindFile=,
(PID.TID 0000.0001) > &
(PID.TID 0000.0001) 
(PID.TID 0000.0001)  INI_PARMS ; starts to read PARM01
(PID.TID 0000.0001)  INI_PARMS ; read PARM01 : OK
(PID.TID 0000.0001)  INI_PARMS ; starts to read PARM02
(PID.TID 0000.0001)  INI_PARMS ; read PARM02 : OK
(PID.TID 0000.0001)  INI_PARMS ; starts to read PARM03
(PID.TID 0000.0001)  INI_PARMS ; read PARM03 : OK
(PID.TID 0000.0001)  INI_PARMS ; starts to read PARM04
(PID.TID 0000.0001)  INI_PARMS ; read PARM04 : OK
(PID.TID 0000.0001)  INI_PARMS ; starts to read PARM05
(PID.TID 0000.0001)  INI_PARMS ; read PARM05 : OK
(PID.TID 0000.0001)  INI_PARMS: finished reading file "data"
(PID.TID 0000.0001)  PACKAGES_BOOT: opening data.pkg
(PID.TID 0000.0001)  OPEN_COPY_DATA_FILE: opening file data.pkg
(PID.TID 0000.0001) // =======================================================
(PID.TID 0000.0001) // Parameter file "data.pkg"
(PID.TID 0000.0001) // =======================================================
(PID.TID 0000.0001) ># Packages
(PID.TID 0000.0001) > &PACKAGES
(PID.TID 0000.0001) > &
(PID.TID 0000.0001) 
(PID.TID 0000.0001)  PACKAGES_BOOT: finished reading data.pkg
(PID.TID 0000.0001)  PACKAGES_BOOT: On/Off package Summary
 --------  pkgs with a standard "usePKG" On/Off switch in "data.pkg":  --------
 -------- pkgs without standard "usePKG" On/Off switch in "data.pkg":  --------
 pkg/generic_advdiff      compiled but not used ( useGAD                   = F )
 pkg/mom_common           compiled   and   used ( momStepping              = T )
 pkg/mom_vecinv           compiled but not used ( +vectorInvariantMomentum = F )
 pkg/mom_fluxform         compiled   and   used ( & not vectorInvariantMom = T )
 pkg/monitor              compiled   and   used ( monitorFreq > 0.         = T )
 pkg/debug                compiled but not used ( debugMode                = F )
 pkg/rw                   compiled   and   used
 pkg/mdsio                compiled   and   used
(PID.TID 0000.0001)  PACKAGES_BOOT: End of package Summary
(PID.TID 0000.0001) 
(PID.TID 0000.0001) SET_PARMS: done
(PID.TID 0000.0001) Enter INI_VERTICAL_GRID: setInterFDr=    T ; setCenterDr=    F
(PID.TID 0000.0001) %MON XC_max                       =   1.2100000000000E+06
(PID.TID 0000.0001) %MON XC_min                       =  -1.0000000000000E+04
(PID.TID 0000.0001) %MON XC_mean                      =   6.0000000000000E+05
(PID.TID 0000.0001) %MON XC_sd                        =   3.5791060336347E+05
(PID.TID 0000.0001) %MON XG_max                       =   1.2000000000000E+06
(PID.TID 0000.0001) %MON XG_min                       =  -2.0000000000000E+04
(PID.TID 0000.0001) %MON XG_mean                      =   5.9000000000000E+05
(PID.TID 0000.0001) %MON XG_sd                        =   3.5791060336347E+05
(PID.TID 0000.0001) %MON DXC_max                      =   2.0000000000000E+04
(PID.TID 0000.0001) %MON DXC_min                      =   2.0000000000000E+04
(PID.TID 0000.0001) %MON DXC_mean                     =   2.0000000000000E+04
(PID.TID 0000.0001) %MON DXC_sd                       =   3.6379788070917E-12
(PID.TID 0000.0001) %MON DXF_max                      =   2.0000000000000E+04
(PID.TID 0000.0001) %MON DXF_min                      =   2.0000000000000E+04
(PID.TID 0000.0001) %MON DXF_mean                     =   2.0000000000000E+04
(PID.TID 0000.0001) %MON DXF_sd                       =   3.6379788070917E-12
(PID.TID 0000.0001) %MON DXG_max                      =   2.0000000000000E+04
(PID.TID 0000.0001) %MON DXG_min                      =   2.0000000000000E+04
(PID.TID 0000.0001) %MON DXG_mean                     =   2.0000000000000E+04
(PID.TID 0000.0001) %MON DXG_sd                       =   3.6379788070917E-12
(PID.TID 0000.0001) %MON DXV_max                      =   2.0000000000000E+04
(PID.TID 0000.0001) %MON DXV_min                      =   2.0000000000000E+04
(PID.TID 0000.0001) %MON DXV_mean                     =   2.0000000000000E+04
(PID.TID 0000.0001) %MON DXV_sd                       =   3.6379788070917E-12
(PID.TID 0000.0001) %MON YC_max                       =   1.2100000000000E+06
(PID.TID 0000.0001) %MON YC_min                       =  -1.0000000000000E+04
(PID.TID 0000.0001) %MON YC_mean                      =   6.0000000000000E+05
(PID.TID 0000.0001) %MON YC_sd                        =   3.5791060336347E+05
(PID.TID 0000.0001) %MON YG_max                       =   1.2000000000000E+06
(PID.TID 0000.0001) %MON YG_min                       =  -2.0000000000000E+04
(PID.TID 0000.0001) %MON YG_mean                      =   5.9000000000000E+05
(PID.TID 0000.0001) %MON YG_sd                        =   3.5791060336347E+05
(PID.TID 0000.0001) %MON DYC_max                      =   2.0000000000000E+04
(PID.TID 0000.0001) %MON DYC_min                      =   2.0000000000000E+04
(PID.TID 0000.0001) %MON DYC_mean                     =   2.0000000000000E+04
(PID.TID 0000.0001) %MON DYC_sd                       =   3.6379788070917E-12
(PID.TID 0000.0001) %MON DYF_max                      =   2.0000000000000E+04
(PID.TID 0000.0001) %MON DYF_min                      =   2.0000000000000E+04
(PID.TID 0000.0001) %MON DYF_mean                     =   2.0000000000000E+04
(PID.TID 0000.0001) %MON DYF_sd                       =   3.6379788070917E-12
(PID.TID 0000.0001) %MON DYG_max                      =   2.0000000000000E+04
(PID.TID 0000.0001) %MON DYG_min                      =   2.0000000000000E+04
(PID.TID 0000.0001) %MON DYG_mean                     =   2.0000000000000E+04
(PID.TID 0000.0001) %MON DYG_sd                       =   3.6379788070917E-12
(PID.TID 0000.0001) %MON DYU_max                      =   2.0000000000000E+04
(PID.TID 0000.0001) %MON DYU_min                      =   2.0000000000000E+04
(PID.TID 0000.0001) %MON DYU_mean                     =   2.0000000000000E+04
(PID.TID 0000.0001) %MON DYU_sd                       =   3.6379788070917E-12
(PID.TID 0000.0001) %MON RA_max                       =   4.0000000000000E+08
(PID.TID 0000.0001) %MON RA_min                       =   4.0000000000000E+08
(PID.TID 0000.0001) %MON RA_mean                      =   4.0000000000000E+08
(PID.TID 0000.0001) %MON RA_sd                        =   5.9604644775391E-08
(PID.TID 0000.0001) %MON RAW_max                      =   4.0000000000000E+08
(PID.TID 0000.0001) %MON RAW_min                      =   4.0000000000000E+08
(PID.TID 0000.0001) %MON RAW_mean                     =   4.0000000000000E+08
(PID.TID 0000.0001) %MON RAW_sd                       =   5.9604644775391E-08
(PID.TID 0000.0001) %MON RAS_max                      =   4.0000000000000E+08
(PID.TID 0000.0001) %MON RAS_min                      =   4.0000000000000E+08
(PID.TID 0000.0001) %MON RAS_mean                     =   4.0000000000000E+08
(PID.TID 0000.0001) %MON RAS_sd                       =   5.9604644775391E-08
(PID.TID 0000.0001) %MON RAZ_max                      =   4.0000000000000E+08
(PID.TID 0000.0001) %MON RAZ_min                      =   4.0000000000000E+08
(PID.TID 0000.0001) %MON RAZ_mean                     =   4.0000000000000E+08
(PID.TID 0000.0001) %MON RAZ_sd                       =   5.9604644775391E-08
(PID.TID 0000.0001) %MON AngleCS_max                  =   1.0000000000000E+00
(PID.TID 0000.0001) %MON AngleCS_min                  =   1.0000000000000E+00
(PID.TID 0000.0001) %MON AngleCS_mean                 =   1.0000000000000E+00
(PID.TID 0000.0001) %MON AngleCS_sd                   =   0.0000000000000E+00
(PID.TID 0000.0001) %MON AngleSN_max                  =   0.0000000000000E+00
(PID.TID 0000.0001) %MON AngleSN_min                  =   0.0000000000000E+00
(PID.TID 0000.0001) %MON AngleSN_mean                 =   0.0000000000000E+00
(PID.TID 0000.0001) %MON AngleSN_sd                   =   0.0000000000000E+00
(PID.TID 0000.0001)  MDS_READ_FIELD: opening global file: bathy.bin
(PID.TID 0000.0001) // =======================================================
(PID.TID 0000.0001) // Field Model R_low (ini_masks_etc)
(PID.TID 0000.0001) // CMIN =         -4.998717285156250E+03
(PID.TID 0000.0001) // CMAX =         -4.500000000000000E+03
(PID.TID 0000.0001) // CINT =          1.847101056134259E+01
(PID.TID 0000.0001) // SYMBOLS (CMIN->CMAX): -abcdefghijklmnopqrstuvwxyz+
(PID.TID 0000.0001) //                  0.0: .
(PID.TID 0000.0001) // RANGE I (Lo:Hi:Step):(    -1:    64:     1)
(PID.TID 0000.0001) // RANGE J (Lo:Hi:Step):(    64:    -1:    -1)
(PID.TID 0000.0001) // RANGE K (Lo:Hi:Step):(   1:   1:   1)
(PID.TID 0000.0001) // =======================================================
(PID.TID 0000.0001) K =   1
(PID.TID 0000.0001) //                I=8       I=18      I=28      I=38      I=48      I=58
(PID.TID 0000.0001) // |--J--|101234567|901234567|901234567|901234567|901234567|901234567|901234
(PID.TID 0000.0001) //     64 -..---aaaaaaaabbbbbbbbbbbbcccccccccccccbbbbbbbbbbbbaaaaaaaa----..-
(PID.TID 0000.0001) //     63 ..................................................................
(PID.TID 0000.0001) //     62 ..................................................................
(PID.TID 0000.0001) //     61 -..-------aaaaaaaaaaaaaaaaaaaaaaaaaaaaaaaaaaaaaaaaaaaaa--------..-
(PID.TID 0000.0001) //     60 -..---aaaaaaaabbbbbbbbbbbbcccccccccccccbbbbbbbbbbbbaaaaaaaa----..-
(PID.TID 0000.0001) //     59 -..-aaaaabbbbbbcccccccdddddddddddddddddddddcccccccbbbbbbaaaaa--..-
(PID.TID 0000.0001) //     58 -..-aaabbbbcccccdddddeeeeeeeeeeeeeeeeeeeeeeedddddcccccbbbbaaa--..-
(PID.TID 0000.0001) //     57 -..aaabbbcccddddeeeeefffffffgggggggggfffffffeeeeeddddcccbbbaaa-..a
(PID.TID 0000.0001) //     56 -..aabbbcccddeeeffffggggghhhhhhhhhhhhhhhgggggffffeeeddcccbbbaa-..a
(PID.TID 0000.0001) //     55 -..aabbccdddeefffggghhhhiiiiiiiiiiiiiiiiihhhhgggfffeedddccbbaa-..a
(PID.TID 0000.0001) //     54 -..abbccddeefffgghhhiiijjjjjjjkkkkkjjjjjjjiiihhhggfffeeddccbba-..a
(PID.TID 0000.0001) //     53 a..abbccdeeffgghhiiijjjkkkkklllllllllkkkkkjjjiiihhggffeedccbbaa..a
(PID.TID 0000.0001) //     52 a..abccddeffgghhiijjkkkllllmmmmmmmmmmmllllkkkjjiihhggffeddccbaa..a
(PID.TID 0000.0001) //     51 a..abcddeffghhiijjkklllmmmnnnnnnnnnnnnnmmmlllkkjjiihhgffeddcbaa..a
(PID.TID 0000.0001) //     50 a..abcdeefgghiijkkllmmmnnnooooooooooooonnnmmmllkkjiihggfeedcbaa..a
(PID.TID 0000.0001) //     49 a..bbcdeffghiijkklmmnnnooopppppppppppppooonnnmmlkkjiihgffedcbba..b
(PID.TID 0000.0001) //     48 a..bccdefghhijkklmmnnoopppqqqqqrrrqqqqqpppoonnmmlkkjihhgfedccba..b
(PID.TID 0000.0001) //     47 a..bcdeffghijkklmmnooppqqqrrrrrsssrrrrrqqqppoonmmlkkjihgffedcba..b
(PID.TID 0000.0001) //     46 a..bcdefghiijklmmnoopqqrrrssssstttsssssrrrqqpoonmmlkjiihgfedcba..b
(PID.TID 0000.0001) //     45 a..bcdefghijklmmnoppqqrrsstttttttttttttssrrqqpponmmlkjihgfedcba..b
(PID.TID 0000.0001) //     44 a..bcdefghijklmnoopqqrsstttuuuuuuuuuuutttssrqqpoonmlkjihgfedcba..b
(PID.TID 0000.0001) //     43 a..bcdeghijklmnnopqqrssttuuuvvvvvvvvvuuuttssrqqponnmlkjihgedcba..b
(PID.TID 0000.0001) //     42 a..bcefghijklmnopqqrsstuuuvvvwwwwwwwvvvuuutssrqqponmlkjihgfecba..b
(PID.TID 0000.0001) //     41 a..bdefghijklmnopqrsstuuvvwwwwwxxxwwwwwvvuutssrqponmlkjihgfedba..b
(PID.TID 0000.0001) //     40 a..bdefghjklmnopqrrstuuvvwwwxxxxxxxxxwwwvvuutsrrqponmlkjhgfedba..b
(PID.TID 0000.0001) //     39 a..bdefgijklmnopqrsttuvvwwxxxyyyyyyyxxxwwvvuttsrqponmlkjigfedba..b
(PID.TID 0000.0001) //     38 a..bdefhijklmnopqrstuuvwwxxyyyyyyyyyyyxxwwvuutsrqponmlkjihfedba..b
(PID.TID 0000.0001) //     37 a..cdefhijklnopqrsttuvwwxxyyyyzzzzzyyyyxxwwvuttsrqponlkjihfedca..c
(PID.TID 0000.0001) //     36 a..cdefhijkmnopqrstuuvwwxyyyzzzzzzzzzyyyxwwvuutsrqponmkjihfedca..c
(PID.TID 0000.0001) //     35 a..cdeghijlmnopqrstuvvwxxyyzzzzzzzzzzzyyxxwvvutsrqponmljihgedca..c
(PID.TID 0000.0001) //     34 a..cdeghijlmnopqrstuvwwxyyyzzz+++++zzzyyyxwwvutsrqponmljihgedca..c
(PID.TID 0000.0001) //     33 a..cdeghiklmnopqrstuvwwxyyzzz+++++++zzzyyxwwvutsrqponmlkihgedca..c
(PID.TID 0000.0001) //     32 a..cdeghiklmnoprsttuvwxxyyzzz+++++++zzzyyxxwvuttsrponmlkihgedca..c
(PID.TID 0000.0001) //     31 a..cdeghiklmnoprsttuvwxxyyzzz+++++++zzzyyxxwvuttsrponmlkihgedca..c
(PID.TID 0000.0001) //     30 a..cdeghiklmnoprsttuvwxxyyzzz+++++++zzzyyxxwvuttsrponmlkihgedca..c
(PID.TID 0000.0001) //     29 a..cdeghiklmnopqrstuvwwxyyzzz+++++++zzzyyxwwvutsrqponmlkihgedca..c
(PID.TID 0000.0001) //     28 a..cdeghijlmnopqrstuvwwxyyyzzz+++++zzzyyyxwwvutsrqponmljihgedca..c
(PID.TID 0000.0001) //     27 a..cdeghijlmnopqrstuvvwxxyyzzzzzzzzzzzyyxxwvvutsrqponmljihgedca..c
(PID.TID 0000.0001) //     26 a..cdefhijkmnopqrstuuvwwxyyyzzzzzzzzzyyyxwwvuutsrqponmkjihfedca..c
(PID.TID 0000.0001) //     25 a..cdefhijklnopqrsttuvwwxxyyyyzzzzzyyyyxxwwvuttsrqponlkjihfedca..c
(PID.TID 0000.0001) //     24 a..bdefhijklmnopqrstuuvwwxxyyyyyyyyyyyxxwwvuutsrqponmlkjihfedba..b
(PID.TID 0000.0001) //     23 a..bdefgijklmnopqrsttuvvwwxxxyyyyyyyxxxwwvvuttsrqponmlkjigfedba..b
(PID.TID 0000.0001) //     22 a..bdefghjklmnopqrrstuuvvwwwxxxxxxxxxwwwvvuutsrrqponmlkjhgfedba..b
(PID.TID 0000.0001) //     21 a..bdefghijklmnopqrsstuuvvwwwwwxxxwwwwwvvuutssrqponmlkjihgfedba..b
(PID.TID 0000.0001) //     20 a..bcefghijklmnopqqrsstuuuvvvwwwwwwwvvvuuutssrqqponmlkjihgfecba..b
(PID.TID 0000.0001) //     19 a..bcdeghijklmnnopqqrssttuuuvvvvvvvvvuuuttssrqqponnmlkjihgedcba..b
(PID.TID 0000.0001) //     18 a..bcdefghijklmnoopqqrsstttuuuuuuuuuuutttssrqqpoonmlkjihgfedcba..b
(PID.TID 0000.0001) //     17 a..bcdefghijklmmnoppqqrrsstttttttttttttssrrqqpponmmlkjihgfedcba..b
(PID.TID 0000.0001) //     16 a..bcdefghiijklmmnoopqqrrrssssstttsssssrrrqqpoonmmlkjiihgfedcba..b
(PID.TID 0000.0001) //     15 a..bcdeffghijkklmmnooppqqqrrrrrsssrrrrrqqqppoonmmlkkjihgffedcba..b
(PID.TID 0000.0001) //     14 a..bccdefghhijkklmmnnoopppqqqqqrrrqqqqqpppoonnmmlkkjihhgfedccba..b
(PID.TID 0000.0001) //     13 a..bbcdeffghiijkklmmnnnooopppppppppppppooonnnmmlkkjiihgffedcbba..b
(PID.TID 0000.0001) //     12 a..abcdeefgghiijkkllmmmnnnooooooooooooonnnmmmllkkjiihggfeedcbaa..a
(PID.TID 0000.0001) //     11 a..abcddeffghhiijjkklllmmmnnnnnnnnnnnnnmmmlllkkjjiihhgffeddcbaa..a
(PID.TID 0000.0001) //     10 a..abccddeffgghhiijjkkkllllmmmmmmmmmmmllllkkkjjiihhggffeddccbaa..a
(PID.TID 0000.0001) //      9 a..abbccdeeffgghhiiijjjkkkkklllllllllkkkkkjjjiiihhggffeedccbbaa..a
(PID.TID 0000.0001) //      8 -..abbccddeefffgghhhiiijjjjjjjkkkkkjjjjjjjiiihhhggfffeeddccbba-..a
(PID.TID 0000.0001) //      7 -..aabbccdddeefffggghhhhiiiiiiiiiiiiiiiiihhhhgggfffeedddccbbaa-..a
(PID.TID 0000.0001) //      6 -..aabbbcccddeeeffffggggghhhhhhhhhhhhhhhgggggffffeeeddcccbbbaa-..a
(PID.TID 0000.0001) //      5 -..aaabbbcccddddeeeeefffffffgggggggggfffffffeeeeeddddcccbbbaaa-..a
(PID.TID 0000.0001) //      4 -..-aaabbbbcccccdddddeeeeeeeeeeeeeeeeeeeeeeedddddcccccbbbbaaa--..-
(PID.TID 0000.0001) //      3 -..-aaaaabbbbbbcccccccdddddddddddddddddddddcccccccbbbbbbaaaaa--..-
(PID.TID 0000.0001) //      2 -..---aaaaaaaabbbbbbbbbbbbcccccccccccccbbbbbbbbbbbbaaaaaaaa----..-
(PID.TID 0000.0001) //      1 ..................................................................
(PID.TID 0000.0001) //      0 ..................................................................
(PID.TID 0000.0001) //     -1 -..-------aaaaaaaaaaaaaaaaaaaaaaaaaaaaaaaaaaaaaaaaaaaaa--------..-
(PID.TID 0000.0001) // =======================================================
(PID.TID 0000.0001) // END OF FIELD                                          =
(PID.TID 0000.0001) // =======================================================
(PID.TID 0000.0001) 
(PID.TID 0000.0001) // =======================================================
(PID.TID 0000.0001) // Field Model Ro_surf (ini_masks_etc)
(PID.TID 0000.0001) // CMIN =          1.000000000000000E+32
(PID.TID 0000.0001) // CMAX =         -1.000000000000000E+32
(PID.TID 0000.0001) // CINT =          0.000000000000000E+00
(PID.TID 0000.0001) // SYMBOLS (CMIN->CMAX): -abcdefghijklmnopqrstuvwxyz+
(PID.TID 0000.0001) //                  0.0: .
(PID.TID 0000.0001) // RANGE I (Lo:Hi:Step):(    -1:    64:     1)
(PID.TID 0000.0001) // RANGE J (Lo:Hi:Step):(    64:    -1:    -1)
(PID.TID 0000.0001) // RANGE K (Lo:Hi:Step):(   1:   1:   1)
(PID.TID 0000.0001) // =======================================================
(PID.TID 0000.0001) // =======================================================
(PID.TID 0000.0001) // END OF FIELD                                          =
(PID.TID 0000.0001) // =======================================================
(PID.TID 0000.0001) 
(PID.TID 0000.0001) // =======================================================
(PID.TID 0000.0001) // Field hFacC at iteration          0
(PID.TID 0000.0001) // CMIN =          9.000000000000000E-01
(PID.TID 0000.0001) // CMAX =          9.997434570312500E-01
(PID.TID 0000.0001) // CINT =          3.694202112268518E-03
(PID.TID 0000.0001) // SYMBOLS (CMIN->CMAX): -abcdefghijklmnopqrstuvwxyz+
(PID.TID 0000.0001) //                  0.0: .
(PID.TID 0000.0001) // RANGE I (Lo:Hi:Step):(    -1:    64:     1)
(PID.TID 0000.0001) // RANGE J (Lo:Hi:Step):(    64:    -1:    -1)
(PID.TID 0000.0001) // RANGE K (Lo:Hi:Step):(   1:   1:   1)
(PID.TID 0000.0001) // =======================================================
(PID.TID 0000.0001) K =   1
(PID.TID 0000.0001) //                I=8       I=18      I=28      I=38      I=48      I=58
(PID.TID 0000.0001) // |--J--|101234567|901234567|901234567|901234567|901234567|901234567|901234
(PID.TID 0000.0001) //     64 +..+++zzzzzzzzyyyyyyyyyyyyxxxxxxxxxxxxxyyyyyyyyyyyyzzzzzzzz++++..+
(PID.TID 0000.0001) //     63 ..................................................................
(PID.TID 0000.0001) //     62 ..................................................................
(PID.TID 0000.0001) //     61 +..+++++++zzzzzzzzzzzzzzzzzzzzzzzzzzzzzzzzzzzzzzzzzzzzz++++++++..+
(PID.TID 0000.0001) //     60 +..+++zzzzzzzzyyyyyyyyyyyyxxxxxxxxxxxxxyyyyyyyyyyyyzzzzzzzz++++..+
(PID.TID 0000.0001) //     59 +..+zzzzzyyyyyyxxxxxxxwwwwwwwwwwwwwwwwwwwwwxxxxxxxyyyyyyzzzzz++..+
(PID.TID 0000.0001) //     58 +..+zzzyyyyxxxxxwwwwwvvvvvvvvvvvvvvvvvvvvvvvwwwwwxxxxxyyyyzzz++..+
(PID.TID 0000.0001) //     57 +..zzzyyyxxxwwwwvvvvvuuuuuuutttttttttuuuuuuuvvvvvwwwwxxxyyyzzz+..z
(PID.TID 0000.0001) //     56 +..zzyyyxxxwwvvvuuuutttttssssssssssssssstttttuuuuvvvwwxxxyyyzz+..z
(PID.TID 0000.0001) //     55 +..zzyyxxwwwvvuuutttssssrrrrrrrrrrrrrrrrrsssstttuuuvvwwwxxyyzz+..z
(PID.TID 0000.0001) //     54 +..zyyxxwwvvuuuttsssrrrqqqqqqqpppppqqqqqqqrrrsssttuuuvvwwxxyyz+..z
(PID.TID 0000.0001) //     53 z..zyyxxwvvuuttssrrrqqqpppppooooooooopppppqqqrrrssttuuvvwxxyyzz..z
(PID.TID 0000.0001) //     52 z..zyxxwwvuuttssrrqqpppoooonnnnnnnnnnnoooopppqqrrssttuuvwwxxyzz..z
(PID.TID 0000.0001) //     51 z..zyxwwvuutssrrqqppooonnnmmmmmmmmmmmmmnnnoooppqqrrsstuuvwwxyzz..z
(PID.TID 0000.0001) //     50 z..zyxwvvuttsrrqppoonnnmmmlllllllllllllmmmnnnooppqrrsttuvvwxyzz..z
(PID.TID 0000.0001) //     49 z..yyxwvuutsrrqpponnmmmlllkkkkkkkkkkkkklllmmmnnoppqrrstuuvwxyyz..y
(PID.TID 0000.0001) //     48 z..yxxwvutssrqpponnmmllkkkjjjjjiiijjjjjkkkllmmnnoppqrsstuvwxxyz..y
(PID.TID 0000.0001) //     47 z..yxwvuutsrqpponnmllkkjjjiiiiihhhiiiiijjjkkllmnnoppqrstuuvwxyz..y
(PID.TID 0000.0001) //     46 z..yxwvutsrrqponnmllkjjiiihhhhhggghhhhhiiijjkllmnnopqrrstuvwxyz..y
(PID.TID 0000.0001) //     45 z..yxwvutsrqponnmlkkjjiihhggggggggggggghhiijjkklmnnopqrstuvwxyz..y
(PID.TID 0000.0001) //     44 z..yxwvutsrqponmllkjjihhgggfffffffffffggghhijjkllmnopqrstuvwxyz..y
(PID.TID 0000.0001) //     43 z..yxwvtsrqponmmlkjjihhggfffeeeeeeeeefffgghhijjklmmnopqrstvwxyz..y
(PID.TID 0000.0001) //     42 z..yxvutsrqponmlkjjihhgfffeeedddddddeeefffghhijjklmnopqrstuvxyz..y
(PID.TID 0000.0001) //     41 z..ywvutsrqponmlkjihhgffeedddddcccdddddeeffghhijklmnopqrstuvwyz..y
(PID.TID 0000.0001) //     40 z..ywvutsqponmlkjiihgffeedddcccccccccdddeeffghiijklmnopqstuvwyz..y
(PID.TID 0000.0001) //     39 z..ywvutrqponmlkjihggfeeddcccbbbbbbbcccddeefgghijklmnopqrtuvwyz..y
(PID.TID 0000.0001) //     38 z..ywvusrqponmlkjihgffeddccbbbbbbbbbbbccddeffghijklmnopqrsuvwyz..y
(PID.TID 0000.0001) //     37 z..xwvusrqpomlkjihggfeddccbbbbaaaaabbbbccddefgghijklmopqrsuvwxz..x
(PID.TID 0000.0001) //     36 z..xwvusrqpnmlkjihgffeddcbbbaaaaaaaaabbbcddeffghijklmnpqrsuvwxz..x
(PID.TID 0000.0001) //     35 z..xwvtsrqonmlkjihgfeedccbbaaaaaaaaaaabbccdeefghijklmnoqrstvwxz..x
(PID.TID 0000.0001) //     34 z..xwvtsrqonmlkjihgfeddcbbbaaa-----aaabbbcddefghijklmnoqrstvwxz..x
(PID.TID 0000.0001) //     33 z..xwvtsrponmlkjihgfeddcbbaaa-------aaabbcddefghijklmnoprstvwxz..x
(PID.TID 0000.0001) //     32 z..xwvtsrponmlkihggfedccbbaaa-------aaabbccdefgghiklmnoprstvwxz..x
(PID.TID 0000.0001) //     31 z..xwvtsrponmlkihggfedccbbaaa-------aaabbccdefgghiklmnoprstvwxz..x
(PID.TID 0000.0001) //     30 z..xwvtsrponmlkihggfedccbbaaa-------aaabbccdefgghiklmnoprstvwxz..x
(PID.TID 0000.0001) //     29 z..xwvtsrponmlkjihgfeddcbbaaa-------aaabbcddefghijklmnoprstvwxz..x
(PID.TID 0000.0001) //     28 z..xwvtsrqonmlkjihgfeddcbbbaaa-----aaabbbcddefghijklmnoqrstvwxz..x
(PID.TID 0000.0001) //     27 z..xwvtsrqonmlkjihgfeedccbbaaaaaaaaaaabbccdeefghijklmnoqrstvwxz..x
(PID.TID 0000.0001) //     26 z..xwvusrqpnmlkjihgffeddcbbbaaaaaaaaabbbcddeffghijklmnpqrsuvwxz..x
(PID.TID 0000.0001) //     25 z..xwvusrqpomlkjihggfeddccbbbbaaaaabbbbccddefgghijklmopqrsuvwxz..x
(PID.TID 0000.0001) //     24 z..ywvusrqponmlkjihgffeddccbbbbbbbbbbbccddeffghijklmnopqrsuvwyz..y
(PID.TID 0000.0001) //     23 z..ywvutrqponmlkjihggfeeddcccbbbbbbbcccddeefgghijklmnopqrtuvwyz..y
(PID.TID 0000.0001) //     22 z..ywvutsqponmlkjiihgffeedddcccccccccdddeeffghiijklmnopqstuvwyz..y
(PID.TID 0000.0001) //     21 z..ywvutsrqponmlkjihhgffeedddddcccdddddeeffghhijklmnopqrstuvwyz..y
(PID.TID 0000.0001) //     20 z..yxvutsrqponmlkjjihhgfffeeedddddddeeefffghhijjklmnopqrstuvxyz..y
(PID.TID 0000.0001) //     19 z..yxwvtsrqponmmlkjjihhggfffeeeeeeeeefffgghhijjklmmnopqrstvwxyz..y
(PID.TID 0000.0001) //     18 z..yxwvutsrqponmllkjjihhgggfffffffffffggghhijjkllmnopqrstuvwxyz..y
(PID.TID 0000.0001) //     17 z..yxwvutsrqponnmlkkjjiihhggggggggggggghhiijjkklmnnopqrstuvwxyz..y
(PID.TID 0000.0001) //     16 z..yxwvutsrrqponnmllkjjiiihhhhhggghhhhhiiijjkllmnnopqrrstuvwxyz..y
(PID.TID 0000.0001) //     15 z..yxwvuutsrqpponnmllkkjjjiiiiihhhiiiiijjjkkllmnnoppqrstuuvwxyz..y
(PID.TID 0000.0001) //     14 z..yxxwvutssrqpponnmmllkkkjjjjjiiijjjjjkkkllmmnnoppqrsstuvwxxyz..y
(PID.TID 0000.0001) //     13 z..yyxwvuutsrrqpponnmmmlllkkkkkkkkkkkkklllmmmnnoppqrrstuuvwxyyz..y
(PID.TID 0000.0001) //     12 z..zyxwvvuttsrrqppoonnnmmmlllllllllllllmmmnnnooppqrrsttuvvwxyzz..z
(PID.TID 0000.0001) //     11 z..zyxwwvuutssrrqqppooonnnmmmmmmmmmmmmmnnnoooppqqrrsstuuvwwxyzz..z
(PID.TID 0000.0001) //     10 z..zyxxwwvuuttssrrqqpppoooonnnnnnnnnnnoooopppqqrrssttuuvwwxxyzz..z
(PID.TID 0000.0001) //      9 z..zyyxxwvvuuttssrrrqqqpppppooooooooopppppqqqrrrssttuuvvwxxyyzz..z
(PID.TID 0000.0001) //      8 +..zyyxxwwvvuuuttsssrrrqqqqqqqpppppqqqqqqqrrrsssttuuuvvwwxxyyz+..z
(PID.TID 0000.0001) //      7 +..zzyyxxwwwvvuuutttssssrrrrrrrrrrrrrrrrrsssstttuuuvvwwwxxyyzz+..z
(PID.TID 0000.0001) //      6 +..zzyyyxxxwwvvvuuuutttttssssssssssssssstttttuuuuvvvwwxxxyyyzz+..z
(PID.TID 0000.0001) //      5 +..zzzyyyxxxwwwwvvvvvuuuuuuutttttttttuuuuuuuvvvvvwwwwxxxyyyzzz+..z
(PID.TID 0000.0001) //      4 +..+zzzyyyyxxxxxwwwwwvvvvvvvvvvvvvvvvvvvvvvvwwwwwxxxxxyyyyzzz++..+
(PID.TID 0000.0001) //      3 +..+zzzzzyyyyyyxxxxxxxwwwwwwwwwwwwwwwwwwwwwxxxxxxxyyyyyyzzzzz++..+
(PID.TID 0000.0001) //      2 +..+++zzzzzzzzyyyyyyyyyyyyxxxxxxxxxxxxxyyyyyyyyyyyyzzzzzzzz++++..+
(PID.TID 0000.0001) //      1 ..................................................................
(PID.TID 0000.0001) //      0 ..................................................................
(PID.TID 0000.0001) //     -1 +..+++++++zzzzzzzzzzzzzzzzzzzzzzzzzzzzzzzzzzzzzzzzzzzzz++++++++..+
(PID.TID 0000.0001) // =======================================================
(PID.TID 0000.0001) // END OF FIELD                                          =
(PID.TID 0000.0001) // =======================================================
(PID.TID 0000.0001) 
(PID.TID 0000.0001) // =======================================================
(PID.TID 0000.0001) // Field hFacW at iteration          0
(PID.TID 0000.0001) // CMIN =          9.000000000000000E-01
(PID.TID 0000.0001) // CMAX =          9.994875976562501E-01
(PID.TID 0000.0001) // CINT =          3.684725839120372E-03
(PID.TID 0000.0001) // SYMBOLS (CMIN->CMAX): -abcdefghijklmnopqrstuvwxyz+
(PID.TID 0000.0001) //                  0.0: .
(PID.TID 0000.0001) // RANGE I (Lo:Hi:Step):(    -1:    64:     1)
(PID.TID 0000.0001) // RANGE J (Lo:Hi:Step):(    64:    -1:    -1)
(PID.TID 0000.0001) // RANGE K (Lo:Hi:Step):(   1:   1:   1)
(PID.TID 0000.0001) // =======================================================
(PID.TID 0000.0001) K =   1
(PID.TID 0000.0001) //                I=8       I=18      I=28      I=38      I=48      I=58
(PID.TID 0000.0001) // |--J--|101234567|901234567|901234567|901234567|901234567|901234567|901234
(PID.TID 0000.0001) //     64 +...++zzzzzzzzyyyyyyyyyyyyyxxxxxxxxxxxxyyyyyyyyyyyyyzzzzzzzz+++...
(PID.TID 0000.0001) //     63 ..................................................................
(PID.TID 0000.0001) //     62 ..................................................................
(PID.TID 0000.0001) //     61 +...+++++++zzzzzzzzzzzzzzzzzzzzzzzzzzzzzzzzzzzzzzzzzzzz++++++++...
(PID.TID 0000.0001) //     60 +...++zzzzzzzzyyyyyyyyyyyyyxxxxxxxxxxxxyyyyyyyyyyyyyzzzzzzzz+++...
(PID.TID 0000.0001) //     59 +...+zzzzzyyyyyxxxxxxxxwwwwwwwwwwwwwwwwwwwwxxxxxxxxyyyyyzzzzz++...
(PID.TID 0000.0001) //     58 +...zzzzyyyxxxxxwwwwwwvvvvvvvvvvvvvvvvvvvvvvwwwwwwxxxxxyyyzzzz+...
(PID.TID 0000.0001) //     57 z...zzyyyxxxxwwwvvvvvuuuuuuuttttttttttuuuuuuuvvvvvwwwxxxxyyyzzz...
(PID.TID 0000.0001) //     56 z...zzyyxxxwwvvvvuuuttttttssssssssssssssttttttuuuvvvvwwxxxyyzzz...
(PID.TID 0000.0001) //     55 z...zyyxxwwwvvuuutttssssrrrrrrrrrrrrrrrrrrsssstttuuuvvwwwxxyyzz...
(PID.TID 0000.0001) //     54 z...zyxxwwvvuuuttsssrrrrqqqqqqppppppqqqqqqrrrrsssttuuuvvwwxxyzz...
(PID.TID 0000.0001) //     53 z...yyxxwvvuuttssrrrqqqpppppoooooooooopppppqqqrrrssttuuvvwxxyyz...
(PID.TID 0000.0001) //     52 z...yxxwwvuuttssrrqqpppoooonnnnnnnnnnnnoooopppqqrrssttuuvwwxxyz...
(PID.TID 0000.0001) //     51 z...yxxwvuuttsrrqqppooonnnmmmmmmmmmmmmmmnnnoooppqqrrsttuuvwxxyz...
(PID.TID 0000.0001) //     50 z...yxwvvuttsrrqppoonnnmmmllllllllllllllmmmnnnooppqrrsttuvvwxyz...
(PID.TID 0000.0001) //     49 y...yxwvuutsrrqppoonnmmlllkkkkkkkkkkkkkklllmmnnooppqrrstuuvwxyy...
(PID.TID 0000.0001) //     48 y...xxwvutssrqpponnmmllkkkjjjjjiiiijjjjjkkkllmmnnoppqrsstuvwxxy...
(PID.TID 0000.0001) //     47 y...xwvvutsrqpponnmllkkjjjiiiiihhhhiiiiijjjkkllmnnoppqrstuvvwxy...
(PID.TID 0000.0001) //     46 y...xwvutsrrqponnmllkjjiiihhhhhgggghhhhhiiijjkllmnnopqrrstuvwxy...
(PID.TID 0000.0001) //     45 y...xwvutsrqpoonmllkjjiihhgggggggggggggghhiijjkllmnoopqrstuvwxy...
(PID.TID 0000.0001) //     44 y...xwvutsrqponmllkjjihhgggffffffffffffggghhijjkllmnopqrstuvwxy...
(PID.TID 0000.0001) //     43 y...xwvtsrqponnmlkjjihhggfffeeeeeeeeeefffgghhijjklmnnopqrstvwxy...
(PID.TID 0000.0001) //     42 y...xwutsrqponmlkjjihhgfffeeeddddddddeeefffghhijjklmnopqrstuwxy...
(PID.TID 0000.0001) //     41 y...xvutsrqponmlkjihhgffeedddddccccdddddeeffghhijklmnopqrstuvxy...
(PID.TID 0000.0001) //     40 y...wvutsrponmlkjiihgffeedddccccccccccdddeeffghiijklmnoprstuvwy...
(PID.TID 0000.0001) //     39 y...wvutrqponmlkjihggfeeddcccbbbbbbbbcccddeefgghijklmnopqrtuvwy...
(PID.TID 0000.0001) //     38 y...wvutrqponmlkjihgffeddcccbbbbbbbbbbcccddeffghijklmnopqrtuvwy...
(PID.TID 0000.0001) //     37 y...wvusrqpomlkjihggfeddccbbbbaaaaaabbbbccddefgghijklmopqrsuvwy...
(PID.TID 0000.0001) //     36 x...wvusrqpnmlkjihgffeddccbbaaaaaaaaaabbccddeffghijklmnpqrsuvwx...
(PID.TID 0000.0001) //     35 x...wvtsrqonmlkjihgfeedccbbaaaaaaaaaaaabbccdeefghijklmnoqrstvwx...
(PID.TID 0000.0001) //     34 x...wvtsrqonmlkjihgfeddcbbbaaa------aaabbbcddefghijklmnoqrstvwx...
(PID.TID 0000.0001) //     33 x...wvtsrponmlkjihgfeddcbbaaa--------aaabbcddefghijklmnoprstvwx...
(PID.TID 0000.0001) //     32 x...wvtsrponmlkihggfedccbbaaa--------aaabbccdefgghiklmnoprstvwx...
(PID.TID 0000.0001) //     31 x...wvtsrponmlkihggfedccbbaaa--------aaabbccdefgghiklmnoprstvwx...
(PID.TID 0000.0001) //     30 x...wvtsrponmlkihggfedccbbaaa--------aaabbccdefgghiklmnoprstvwx...
(PID.TID 0000.0001) //     29 x...wvtsrponmlkjihgfeddcbbaaa--------aaabbcddefghijklmnoprstvwx...
(PID.TID 0000.0001) //     28 x...wvtsrqonmlkjihgfeddcbbbaaa------aaabbbcddefghijklmnoqrstvwx...
(PID.TID 0000.0001) //     27 x...wvtsrqonmlkjihgfeedccbbaaaaaaaaaaaabbccdeefghijklmnoqrstvwx...
(PID.TID 0000.0001) //     26 x...wvusrqpnmlkjihgffeddccbbaaaaaaaaaabbccddeffghijklmnpqrsuvwx...
(PID.TID 0000.0001) //     25 y...wvusrqpomlkjihggfeddccbbbbaaaaaabbbbccddefgghijklmopqrsuvwy...
(PID.TID 0000.0001) //     24 y...wvutrqponmlkjihgffeddcccbbbbbbbbbbcccddeffghijklmnopqrtuvwy...
(PID.TID 0000.0001) //     23 y...wvutrqponmlkjihggfeeddcccbbbbbbbbcccddeefgghijklmnopqrtuvwy...
(PID.TID 0000.0001) //     22 y...wvutsrponmlkjiihgffeedddccccccccccdddeeffghiijklmnoprstuvwy...
(PID.TID 0000.0001) //     21 y...xvutsrqponmlkjihhgffeedddddccccdddddeeffghhijklmnopqrstuvxy...
(PID.TID 0000.0001) //     20 y...xwutsrqponmlkjjihhgfffeeeddddddddeeefffghhijjklmnopqrstuwxy...
(PID.TID 0000.0001) //     19 y...xwvtsrqponnmlkjjihhggfffeeeeeeeeeefffgghhijjklmnnopqrstvwxy...
(PID.TID 0000.0001) //     18 y...xwvutsrqponmllkjjihhgggffffffffffffggghhijjkllmnopqrstuvwxy...
(PID.TID 0000.0001) //     17 y...xwvutsrqpoonmllkjjiihhgggggggggggggghhiijjkllmnoopqrstuvwxy...
(PID.TID 0000.0001) //     16 y...xwvutsrrqponnmllkjjiiihhhhhgggghhhhhiiijjkllmnnopqrrstuvwxy...
(PID.TID 0000.0001) //     15 y...xwvvutsrqpponnmllkkjjjiiiiihhhhiiiiijjjkkllmnnoppqrstuvvwxy...
(PID.TID 0000.0001) //     14 y...xxwvutssrqpponnmmllkkkjjjjjiiiijjjjjkkkllmmnnoppqrsstuvwxxy...
(PID.TID 0000.0001) //     13 y...yxwvuutsrrqppoonnmmlllkkkkkkkkkkkkkklllmmnnooppqrrstuuvwxyy...
(PID.TID 0000.0001) //     12 z...yxwvvuttsrrqppoonnnmmmllllllllllllllmmmnnnooppqrrsttuvvwxyz...
(PID.TID 0000.0001) //     11 z...yxxwvuuttsrrqqppooonnnmmmmmmmmmmmmmmnnnoooppqqrrsttuuvwxxyz...
(PID.TID 0000.0001) //     10 z...yxxwwvuuttssrrqqpppoooonnnnnnnnnnnnoooopppqqrrssttuuvwwxxyz...
(PID.TID 0000.0001) //      9 z...yyxxwvvuuttssrrrqqqpppppoooooooooopppppqqqrrrssttuuvvwxxyyz...
(PID.TID 0000.0001) //      8 z...zyxxwwvvuuuttsssrrrrqqqqqqppppppqqqqqqrrrrsssttuuuvvwwxxyzz...
(PID.TID 0000.0001) //      7 z...zyyxxwwwvvuuutttssssrrrrrrrrrrrrrrrrrrsssstttuuuvvwwwxxyyzz...
(PID.TID 0000.0001) //      6 z...zzyyxxxwwvvvvuuuttttttssssssssssssssttttttuuuvvvvwwxxxyyzzz...
(PID.TID 0000.0001) //      5 z...zzyyyxxxxwwwvvvvvuuuuuuuttttttttttuuuuuuuvvvvvwwwxxxxyyyzzz...
(PID.TID 0000.0001) //      4 +...zzzzyyyxxxxxwwwwwwvvvvvvvvvvvvvvvvvvvvvvwwwwwwxxxxxyyyzzzz+...
(PID.TID 0000.0001) //      3 +...+zzzzzyyyyyxxxxxxxxwwwwwwwwwwwwwwwwwwwwxxxxxxxxyyyyyzzzzz++...
(PID.TID 0000.0001) //      2 +...++zzzzzzzzyyyyyyyyyyyyyxxxxxxxxxxxxyyyyyyyyyyyyyzzzzzzzz+++...
(PID.TID 0000.0001) //      1 ..................................................................
(PID.TID 0000.0001) //      0 ..................................................................
(PID.TID 0000.0001) //     -1 +...+++++++zzzzzzzzzzzzzzzzzzzzzzzzzzzzzzzzzzzzzzzzzzzz++++++++...
(PID.TID 0000.0001) // =======================================================
(PID.TID 0000.0001) // END OF FIELD                                          =
(PID.TID 0000.0001) // =======================================================
(PID.TID 0000.0001) 
(PID.TID 0000.0001) // =======================================================
(PID.TID 0000.0001) // Field hFacS at iteration          0
(PID.TID 0000.0001) // CMIN =          9.000000000000000E-01
(PID.TID 0000.0001) // CMAX =          9.994875976562501E-01
(PID.TID 0000.0001) // CINT =          3.684725839120372E-03
(PID.TID 0000.0001) // SYMBOLS (CMIN->CMAX): -abcdefghijklmnopqrstuvwxyz+
(PID.TID 0000.0001) //                  0.0: .
(PID.TID 0000.0001) // RANGE I (Lo:Hi:Step):(    -1:    64:     1)
(PID.TID 0000.0001) // RANGE J (Lo:Hi:Step):(    64:    -1:    -1)
(PID.TID 0000.0001) // RANGE K (Lo:Hi:Step):(   1:   1:   1)
(PID.TID 0000.0001) // =======================================================
(PID.TID 0000.0001) K =   1
(PID.TID 0000.0001) //                I=8       I=18      I=28      I=38      I=48      I=58
(PID.TID 0000.0001) // |--J--|101234567|901234567|901234567|901234567|901234567|901234567|901234
(PID.TID 0000.0001) //     64 ..................................................................
(PID.TID 0000.0001) //     63 ..................................................................
(PID.TID 0000.0001) //     62 ..................................................................
(PID.TID 0000.0001) //     61 +..+++zzzzzzzzyyyyyyyyyyyyyxxxxxxxxxxxyyyyyyyyyyyyyzzzzzzzz++++..+
(PID.TID 0000.0001) //     60 +..++zzzzzyyyyyxxxxxxxxwwwwwwwwwwwwwwwwwwwxxxxxxxxyyyyyzzzzz+++..+
(PID.TID 0000.0001) //     59 +..+zzzzyyyxxxxxwwwwwwvvvvvvvvvvvvvvvvvvvvvwwwwwwxxxxxyyyzzzz++..+
(PID.TID 0000.0001) //     58 +..zzzyyyxxxxwwwvvvvvuuuuuuutttttttttuuuuuuuvvvvvwwwxxxxyyyzzz+..z
(PID.TID 0000.0001) //     57 +..zzzyyxxxwwvvvvuuuttttttsssssssssssssttttttuuuvvvvwwxxxyyzzz+..z
(PID.TID 0000.0001) //     56 +..zzyyxxwwwvvuuutttssssrrrrrrrrrrrrrrrrrsssstttuuuvvwwwxxyyzz+..z
(PID.TID 0000.0001) //     55 +..zzyxxwwvvuuuttsssrrrrqqqqqqpppppqqqqqqrrrrsssttuuuvvwwxxyzz+..z
(PID.TID 0000.0001) //     54 +..zyyxxwvvuuttssrrrqqqpppppooooooooopppppqqqrrrssttuuvvwxxyyz+..z
(PID.TID 0000.0001) //     53 z..zyxxwwvuuttssrrqqpppoooonnnnnnnnnnnoooopppqqrrssttuuvwwxxyzz..z
(PID.TID 0000.0001) //     52 z..zyxxwvuuttsrrqqppooonnnmmmmmmmmmmmmmnnnoooppqqrrsttuuvwxxyzz..z
(PID.TID 0000.0001) //     51 z..zyxwvvuttsrrqppoonnnmmmlllllllllllllmmmnnnooppqrrsttuvvwxyzz..z
(PID.TID 0000.0001) //     50 z..yyxwvuutsrrqppoonnmmlllkkkkkkkkkkkkklllmmnnooppqrrstuuvwxyyz..y
(PID.TID 0000.0001) //     49 z..yxxwvutssrqpponnmmllkkkjjjjjiiijjjjjkkkllmmnnoppqrsstuvwxxyz..y
(PID.TID 0000.0001) //     48 z..yxwvvutsrqpponnmllkkjjjiiiiihhhiiiiijjjkkllmnnoppqrstuvvwxyz..y
(PID.TID 0000.0001) //     47 z..yxwvutsrrqponnmllkjjiiihhhhhggghhhhhiiijjkllmnnopqrrstuvwxyz..y
(PID.TID 0000.0001) //     46 z..yxwvutsrqpoonmllkjjiihhggggggggggggghhiijjkllmnoopqrstuvwxyz..y
(PID.TID 0000.0001) //     45 z..yxwvutsrqponmllkjjihhgggfffffffffffggghhijjkllmnopqrstuvwxyz..y
(PID.TID 0000.0001) //     44 z..yxwvtsrqponnmlkjjihhggfffeeeeeeeeefffgghhijjklmnnopqrstvwxyz..y
(PID.TID 0000.0001) //     43 z..yxwutsrqponmlkjjihhgfffeeedddddddeeefffghhijjklmnopqrstuwxyz..y
(PID.TID 0000.0001) //     42 z..yxvutsrqponmlkjihhgffeedddddcccdddddeeffghhijklmnopqrstuvxyz..y
(PID.TID 0000.0001) //     41 z..ywvutsrponmlkjiihgffeedddcccccccccdddeeffghiijklmnoprstuvwyz..y
(PID.TID 0000.0001) //     40 z..ywvutrqponmlkjihggfeeddcccbbbbbbbcccddeefgghijklmnopqrtuvwyz..y
(PID.TID 0000.0001) //     39 z..ywvutrqponmlkjihgffeddcccbbbbbbbbbcccddeffghijklmnopqrtuvwyz..y
(PID.TID 0000.0001) //     38 z..ywvusrqpomlkjihggfeddccbbbbaaaaabbbbccddefgghijklmopqrsuvwyz..y
(PID.TID 0000.0001) //     37 z..xwvusrqpnmlkjihgffeddccbbaaaaaaaaabbccddeffghijklmnpqrsuvwxz..x
(PID.TID 0000.0001) //     36 z..xwvtsrqonmlkjihgfeedccbbaaaaaaaaaaabbccdeefghijklmnoqrstvwxz..x
(PID.TID 0000.0001) //     35 z..xwvtsrqonmlkjihgfeddcbbbaaa-----aaabbbcddefghijklmnoqrstvwxz..x
(PID.TID 0000.0001) //     34 z..xwvtsrponmlkjihgfeddcbbaaa-------aaabbcddefghijklmnoprstvwxz..x
(PID.TID 0000.0001) //     33 z..xwvtsrponmlkihggfedccbbaaa-------aaabbccdefgghiklmnoprstvwxz..x
(PID.TID 0000.0001) //     32 z..xwvtsrponmlkihggfedccbbaaa-------aaabbccdefgghiklmnoprstvwxz..x
(PID.TID 0000.0001) //     31 z..xwvtsrponmlkihggfedccbbaaa-------aaabbccdefgghiklmnoprstvwxz..x
(PID.TID 0000.0001) //     30 z..xwvtsrponmlkihggfedccbbaaa-------aaabbccdefgghiklmnoprstvwxz..x
(PID.TID 0000.0001) //     29 z..xwvtsrponmlkjihgfeddcbbaaa-------aaabbcddefghijklmnoprstvwxz..x
(PID.TID 0000.0001) //     28 z..xwvtsrqonmlkjihgfeddcbbbaaa-----aaabbbcddefghijklmnoqrstvwxz..x
(PID.TID 0000.0001) //     27 z..xwvtsrqonmlkjihgfeedccbbaaaaaaaaaaabbccdeefghijklmnoqrstvwxz..x
(PID.TID 0000.0001) //     26 z..xwvusrqpnmlkjihgffeddccbbaaaaaaaaabbccddeffghijklmnpqrsuvwxz..x
(PID.TID 0000.0001) //     25 z..ywvusrqpomlkjihggfeddccbbbbaaaaabbbbccddefgghijklmopqrsuvwyz..y
(PID.TID 0000.0001) //     24 z..ywvutrqponmlkjihgffeddcccbbbbbbbbbcccddeffghijklmnopqrtuvwyz..y
(PID.TID 0000.0001) //     23 z..ywvutrqponmlkjihggfeeddcccbbbbbbbcccddeefgghijklmnopqrtuvwyz..y
(PID.TID 0000.0001) //     22 z..ywvutsrponmlkjiihgffeedddcccccccccdddeeffghiijklmnoprstuvwyz..y
(PID.TID 0000.0001) //     21 z..yxvutsrqponmlkjihhgffeedddddcccdddddeeffghhijklmnopqrstuvxyz..y
(PID.TID 0000.0001) //     20 z..yxwutsrqponmlkjjihhgfffeeedddddddeeefffghhijjklmnopqrstuwxyz..y
(PID.TID 0000.0001) //     19 z..yxwvtsrqponnmlkjjihhggfffeeeeeeeeefffgghhijjklmnnopqrstvwxyz..y
(PID.TID 0000.0001) //     18 z..yxwvutsrqponmllkjjihhgggfffffffffffggghhijjkllmnopqrstuvwxyz..y
(PID.TID 0000.0001) //     17 z..yxwvutsrqpoonmllkjjiihhggggggggggggghhiijjkllmnoopqrstuvwxyz..y
(PID.TID 0000.0001) //     16 z..yxwvutsrrqponnmllkjjiiihhhhhggghhhhhiiijjkllmnnopqrrstuvwxyz..y
(PID.TID 0000.0001) //     15 z..yxwvvutsrqpponnmllkkjjjiiiiihhhiiiiijjjkkllmnnoppqrstuvvwxyz..y
(PID.TID 0000.0001) //     14 z..yxxwvutssrqpponnmmllkkkjjjjjiiijjjjjkkkllmmnnoppqrsstuvwxxyz..y
(PID.TID 0000.0001) //     13 z..yyxwvuutsrrqppoonnmmlllkkkkkkkkkkkkklllmmnnooppqrrstuuvwxyyz..y
(PID.TID 0000.0001) //     12 z..zyxwvvuttsrrqppoonnnmmmlllllllllllllmmmnnnooppqrrsttuvvwxyzz..z
(PID.TID 0000.0001) //     11 z..zyxxwvuuttsrrqqppooonnnmmmmmmmmmmmmmnnnoooppqqrrsttuuvwxxyzz..z
(PID.TID 0000.0001) //     10 z..zyxxwwvuuttssrrqqpppoooonnnnnnnnnnnoooopppqqrrssttuuvwwxxyzz..z
(PID.TID 0000.0001) //      9 +..zyyxxwvvuuttssrrrqqqpppppooooooooopppppqqqrrrssttuuvvwxxyyz+..z
(PID.TID 0000.0001) //      8 +..zzyxxwwvvuuuttsssrrrrqqqqqqpppppqqqqqqrrrrsssttuuuvvwwxxyzz+..z
(PID.TID 0000.0001) //      7 +..zzyyxxwwwvvuuutttssssrrrrrrrrrrrrrrrrrsssstttuuuvvwwwxxyyzz+..z
(PID.TID 0000.0001) //      6 +..zzzyyxxxwwvvvvuuuttttttsssssssssssssttttttuuuvvvvwwxxxyyzzz+..z
(PID.TID 0000.0001) //      5 +..zzzyyyxxxxwwwvvvvvuuuuuuutttttttttuuuuuuuvvvvvwwwxxxxyyyzzz+..z
(PID.TID 0000.0001) //      4 +..+zzzzyyyxxxxxwwwwwwvvvvvvvvvvvvvvvvvvvvvwwwwwwxxxxxyyyzzzz++..+
(PID.TID 0000.0001) //      3 +..++zzzzzyyyyyxxxxxxxxwwwwwwwwwwwwwwwwwwwxxxxxxxxyyyyyzzzzz+++..+
(PID.TID 0000.0001) //      2 ..................................................................
(PID.TID 0000.0001) //      1 ..................................................................
(PID.TID 0000.0001) //      0 ..................................................................
(PID.TID 0000.0001) //     -1 +..+++zzzzzzzzyyyyyyyyyyyyyxxxxxxxxxxxyyyyyyyyyyyyyzzzzzzzz++++..+
(PID.TID 0000.0001) // =======================================================
(PID.TID 0000.0001) // END OF FIELD                                          =
(PID.TID 0000.0001) // =======================================================
(PID.TID 0000.0001) 
(PID.TID 0000.0001) GAD_INIT_FIXED: GAD_OlMinSize=  0  0  1
(PID.TID 0000.0001) 
(PID.TID 0000.0001) // ===================================
(PID.TID 0000.0001) // GAD parameters :
(PID.TID 0000.0001) // ===================================
(PID.TID 0000.0001) tempAdvScheme =   /* Temp. Horiz.Advection scheme selector */
(PID.TID 0000.0001)                       2
(PID.TID 0000.0001)     ;
(PID.TID 0000.0001) tempVertAdvScheme =   /* Temp. Vert. Advection scheme selector */
(PID.TID 0000.0001)                       2
(PID.TID 0000.0001)     ;
(PID.TID 0000.0001) tempMultiDimAdvec =   /* use Muti-Dim Advec method for Temp */
(PID.TID 0000.0001)                   F
(PID.TID 0000.0001)     ;
(PID.TID 0000.0001) tempSOM_Advection = /* use 2nd Order Moment Advection for Temp */
(PID.TID 0000.0001)                   F
(PID.TID 0000.0001)     ;
(PID.TID 0000.0001) AdamsBashforthGt = /* apply Adams-Bashforth extrapolation on Gt */
(PID.TID 0000.0001)                   F
(PID.TID 0000.0001)     ;
(PID.TID 0000.0001) AdamsBashforth_T = /* apply Adams-Bashforth extrapolation on Temp */
(PID.TID 0000.0001)                   F
(PID.TID 0000.0001)     ;
(PID.TID 0000.0001) saltAdvScheme =   /* Salt. Horiz.advection scheme selector */
(PID.TID 0000.0001)                       2
(PID.TID 0000.0001)     ;
(PID.TID 0000.0001) saltVertAdvScheme =   /* Salt. Vert. Advection scheme selector */
(PID.TID 0000.0001)                       2
(PID.TID 0000.0001)     ;
(PID.TID 0000.0001) saltMultiDimAdvec =   /* use Muti-Dim Advec method for Salt */
(PID.TID 0000.0001)                   F
(PID.TID 0000.0001)     ;
(PID.TID 0000.0001) saltSOM_Advection = /* use 2nd Order Moment Advection for Salt */
(PID.TID 0000.0001)                   F
(PID.TID 0000.0001)     ;
(PID.TID 0000.0001) AdamsBashforthGs = /* apply Adams-Bashforth extrapolation on Gs */
(PID.TID 0000.0001)                   F
(PID.TID 0000.0001)     ;
(PID.TID 0000.0001) AdamsBashforth_S = /* apply Adams-Bashforth extrapolation on Salt */
(PID.TID 0000.0001)                   F
(PID.TID 0000.0001)     ;
(PID.TID 0000.0001) // ===================================
(PID.TID 0000.0001) %MON fCori_max                    =   1.1210000000000E-04
(PID.TID 0000.0001) %MON fCori_min                    =   9.9900000000000E-05
(PID.TID 0000.0001) %MON fCori_mean                   =   1.0600000000000E-04
(PID.TID 0000.0001) %MON fCori_sd                     =   3.5791060336346E-06
(PID.TID 0000.0001) %MON fCoriG_max                   =   1.1200000000000E-04
(PID.TID 0000.0001) %MON fCoriG_min                   =   9.9800000000000E-05
(PID.TID 0000.0001) %MON fCoriG_mean                  =   1.0590000000000E-04
(PID.TID 0000.0001) %MON fCoriG_sd                    =   3.5791060336346E-06
(PID.TID 0000.0001) %MON fCoriCos_max                 =   0.0000000000000E+00
(PID.TID 0000.0001) %MON fCoriCos_min                 =   0.0000000000000E+00
(PID.TID 0000.0001) %MON fCoriCos_mean                =   0.0000000000000E+00
(PID.TID 0000.0001) %MON fCoriCos_sd                  =   0.0000000000000E+00
(PID.TID 0000.0001) INI_CG2D: CG2D normalisation factor =  2.0010253300690306E-04
(PID.TID 0000.0001) 
(PID.TID 0000.0001) // =======================================================
(PID.TID 0000.0001) // Model configuration
(PID.TID 0000.0001) // =======================================================
(PID.TID 0000.0001) //
(PID.TID 0000.0001) // "Physical" paramters ( PARM01 in namelist )
(PID.TID 0000.0001) //
(PID.TID 0000.0001) buoyancyRelation = /* Type of relation to get Buoyancy */
(PID.TID 0000.0001)               'OCEANIC'
(PID.TID 0000.0001)     ;
(PID.TID 0000.0001) fluidIsAir   =  /* fluid major constituent is Air */
(PID.TID 0000.0001)                   F
(PID.TID 0000.0001)     ;
(PID.TID 0000.0001) fluidIsWater =  /* fluid major constituent is Water */
(PID.TID 0000.0001)                   T
(PID.TID 0000.0001)     ;
(PID.TID 0000.0001) usingPCoords =  /* use p (or p*) vertical coordinate */
(PID.TID 0000.0001)                   F
(PID.TID 0000.0001)     ;
(PID.TID 0000.0001) usingZCoords =  /* use z (or z*) vertical coordinate */
(PID.TID 0000.0001)                   T
(PID.TID 0000.0001)     ;
(PID.TID 0000.0001) tRef =   /* Reference temperature profile ( oC or K ) */
(PID.TID 0000.0001)                 2.000000000000000E+01       /* K =  1 */
(PID.TID 0000.0001)     ;
(PID.TID 0000.0001) sRef =   /* Reference salinity profile ( psu ) */
(PID.TID 0000.0001)                 3.000000000000000E+01       /* K =  1 */
(PID.TID 0000.0001)     ;
(PID.TID 0000.0001) useStrainTensionVisc= /* Use StrainTension Form of Viscous Operator */
(PID.TID 0000.0001)                   F
(PID.TID 0000.0001)     ;
(PID.TID 0000.0001) useVariableVisc = /* Use variable horizontal viscosity */
(PID.TID 0000.0001)                   F
(PID.TID 0000.0001)     ;
(PID.TID 0000.0001) useHarmonicVisc = /* Use harmonic horizontal viscosity */
(PID.TID 0000.0001)                   T
(PID.TID 0000.0001)     ;
(PID.TID 0000.0001) useBiharmonicVisc= /* Use biharmonic horiz.  viscosity */
(PID.TID 0000.0001)                   F
(PID.TID 0000.0001)     ;
(PID.TID 0000.0001) useSmag3D = /* Use isotropic 3-D Smagorinsky viscosity */
(PID.TID 0000.0001)                   F
(PID.TID 0000.0001)     ;
(PID.TID 0000.0001) viscAh  =   /* Lateral harmonic viscosity ( m^2/s ) */
(PID.TID 0000.0001)                 4.000000000000000E+02
(PID.TID 0000.0001)     ;
(PID.TID 0000.0001) viscA4  =   /* Lateral biharmonic viscosity ( m^4/s ) */
(PID.TID 0000.0001)                 0.000000000000000E+00
(PID.TID 0000.0001)     ;
(PID.TID 0000.0001) no_slip_sides =  /* Viscous BCs: No-slip sides */
(PID.TID 0000.0001)                   T
(PID.TID 0000.0001)     ;
(PID.TID 0000.0001) sideDragFactor = /* side-drag scaling factor (non-dim) */
(PID.TID 0000.0001)                 2.000000000000000E+00
(PID.TID 0000.0001)     ;
(PID.TID 0000.0001) viscArNr = /* vertical profile of vertical viscosity ( m^2/s )*/
(PID.TID 0000.0001)                 0.000000000000000E+00       /* K =  1 */
(PID.TID 0000.0001)     ;
(PID.TID 0000.0001) no_slip_bottom =  /* Viscous BCs: No-slip bottom */
(PID.TID 0000.0001)                   T
(PID.TID 0000.0001)     ;
(PID.TID 0000.0001) bottomVisc_pCell = /* Partial-cell in bottom Visc. BC */
(PID.TID 0000.0001)                   F
(PID.TID 0000.0001)     ;
(PID.TID 0000.0001) bottomDragLinear = /* linear bottom-drag coefficient ( m/s ) */
(PID.TID 0000.0001)                 0.000000000000000E+00
(PID.TID 0000.0001)     ;
(PID.TID 0000.0001) bottomDragQuadratic = /* quadratic bottom-drag coefficient (-) */
(PID.TID 0000.0001)                 0.000000000000000E+00
(PID.TID 0000.0001)     ;
(PID.TID 0000.0001) selectBotDragQuadr = /* select quadratic bottom drag options */
(PID.TID 0000.0001)                      -1
(PID.TID 0000.0001)     ;
(PID.TID 0000.0001) diffKhT =   /* Laplacian diffusion of heat laterally ( m^2/s ) */
(PID.TID 0000.0001)                 0.000000000000000E+00
(PID.TID 0000.0001)     ;
(PID.TID 0000.0001) diffK4T =   /* Biharmonic diffusion of heat laterally ( m^4/s ) */
(PID.TID 0000.0001)                 0.000000000000000E+00
(PID.TID 0000.0001)     ;
(PID.TID 0000.0001) diffKhS =   /* Laplacian diffusion of salt laterally ( m^2/s ) */
(PID.TID 0000.0001)                 0.000000000000000E+00
(PID.TID 0000.0001)     ;
(PID.TID 0000.0001) diffK4S =   /* Biharmonic diffusion of salt laterally ( m^4/s ) */
(PID.TID 0000.0001)                 0.000000000000000E+00
(PID.TID 0000.0001)     ;
(PID.TID 0000.0001) diffKrNrT = /* vertical profile of vertical diffusion of Temp ( m^2/s )*/
(PID.TID 0000.0001)                 0.000000000000000E+00       /* K =  1 */
(PID.TID 0000.0001)     ;
(PID.TID 0000.0001) diffKrNrS = /* vertical profile of vertical diffusion of Salt ( m^2/s )*/
(PID.TID 0000.0001)                 0.000000000000000E+00       /* K =  1 */
(PID.TID 0000.0001)     ;
(PID.TID 0000.0001) diffKrBL79surf = /* Surface diffusion for Bryan and Lewis 79 ( m^2/s ) */
(PID.TID 0000.0001)                 0.000000000000000E+00
(PID.TID 0000.0001)     ;
(PID.TID 0000.0001) diffKrBL79deep = /* Deep diffusion for Bryan and Lewis 1979 ( m^2/s ) */
(PID.TID 0000.0001)                 0.000000000000000E+00
(PID.TID 0000.0001)     ;
(PID.TID 0000.0001) diffKrBL79scl = /* Depth scale for Bryan and Lewis 1979 ( m ) */
(PID.TID 0000.0001)                 2.000000000000000E+02
(PID.TID 0000.0001)     ;
(PID.TID 0000.0001) diffKrBL79Ho = /* Turning depth for Bryan and Lewis 1979 ( m ) */
(PID.TID 0000.0001)                -2.000000000000000E+03
(PID.TID 0000.0001)     ;
(PID.TID 0000.0001) ivdc_kappa = /* Implicit Vertical Diffusivity for Convection ( m^2/s) */
(PID.TID 0000.0001)                 0.000000000000000E+00
(PID.TID 0000.0001)     ;
(PID.TID 0000.0001) hMixCriteria=  /* Criteria for mixed-layer diagnostic */
(PID.TID 0000.0001)                -8.000000000000000E-01
(PID.TID 0000.0001)     ;
(PID.TID 0000.0001) dRhoSmall =  /* Parameter for mixed-layer diagnostic */
(PID.TID 0000.0001)                 1.000000000000000E-06
(PID.TID 0000.0001)     ;
(PID.TID 0000.0001) hMixSmooth=  /* Smoothing parameter for mixed-layer diagnostic */
(PID.TID 0000.0001)                 0.000000000000000E+00
(PID.TID 0000.0001)     ;
(PID.TID 0000.0001) eosType =  /* Type of Equation of State */
(PID.TID 0000.0001)               'LINEAR'
(PID.TID 0000.0001)     ;
(PID.TID 0000.0001) tAlpha = /* Linear EOS thermal expansion coefficient ( 1/oC ) */
(PID.TID 0000.0001)                 2.000000000000000E-04
(PID.TID 0000.0001)     ;
(PID.TID 0000.0001) sBeta  = /* Linear EOS haline contraction coefficient ( 1/psu ) */
(PID.TID 0000.0001)                 7.400000000000000E-04
(PID.TID 0000.0001)     ;
(PID.TID 0000.0001) rhoNil    = /* Reference density for Linear EOS ( kg/m^3 ) */
(PID.TID 0000.0001)                 9.998000000000000E+02
(PID.TID 0000.0001)     ;
(PID.TID 0000.0001) selectP_inEOS_Zc = /* select pressure to use in EOS (0,1,2,3) */
(PID.TID 0000.0001)                       0
(PID.TID 0000.0001)     0= -g*rhoConst*z ; 1= pRef (from tRef,sRef); 2= Hyd P ; 3= Hyd+NH P
(PID.TID 0000.0001)     ;
(PID.TID 0000.0001) surf_pRef = /* Surface reference pressure ( Pa ) */
(PID.TID 0000.0001)                 1.013250000000000E+05
(PID.TID 0000.0001)     ;
(PID.TID 0000.0001) HeatCapacity_Cp =  /* Specific heat capacity ( J/kg/K ) */
(PID.TID 0000.0001)                 3.994000000000000E+03
(PID.TID 0000.0001)     ;
(PID.TID 0000.0001) celsius2K = /* 0 degree Celsius converted to Kelvin ( K ) */
(PID.TID 0000.0001)                 2.731500000000000E+02
(PID.TID 0000.0001)     ;
(PID.TID 0000.0001) rhoConst  = /* Reference density (Boussinesq)  ( kg/m^3 ) */
(PID.TID 0000.0001)                 1.000000000000000E+03
(PID.TID 0000.0001)     ;
(PID.TID 0000.0001) rhoFacC = /* normalized Reference density @ cell-Center (-) */
(PID.TID 0000.0001)                 1.000000000000000E+00       /* K =  1 */
(PID.TID 0000.0001)     ;
(PID.TID 0000.0001) rhoFacF = /* normalized Reference density @ W-Interface (-) */
(PID.TID 0000.0001)     2 @  1.000000000000000E+00              /* K =  1:  2 */
(PID.TID 0000.0001)     ;
(PID.TID 0000.0001) rhoConstFresh = /* Fresh-water reference density ( kg/m^3 ) */
(PID.TID 0000.0001)                 1.000000000000000E+03
(PID.TID 0000.0001)     ;
(PID.TID 0000.0001) gravity =   /* Gravitational acceleration ( m/s^2 ) */
(PID.TID 0000.0001)                 9.810000000000000E+00
(PID.TID 0000.0001)     ;
(PID.TID 0000.0001) gBaro =   /* Barotropic gravity ( m/s^2 ) */
(PID.TID 0000.0001)                 9.810000000000000E+00
(PID.TID 0000.0001)     ;
(PID.TID 0000.0001) gravFacC = /* gravity factor (vs surf.) @ cell-Center (-) */
(PID.TID 0000.0001)                 1.000000000000000E+00       /* K =  1 */
(PID.TID 0000.0001)     ;
(PID.TID 0000.0001) gravFacF = /* gravity factor (vs surf.) @ W-Interface (-) */
(PID.TID 0000.0001)     2 @  1.000000000000000E+00              /* K =  1:  2 */
(PID.TID 0000.0001)     ;
(PID.TID 0000.0001) rotationPeriod =   /* Rotation Period ( s ) */
(PID.TID 0000.0001)                 8.616400000000000E+04
(PID.TID 0000.0001)     ;
(PID.TID 0000.0001) omega =   /* Angular velocity ( rad/s ) */
(PID.TID 0000.0001)                 7.292123516990375E-05
(PID.TID 0000.0001)     ;
(PID.TID 0000.0001) f0 =   /* Reference coriolis parameter ( 1/s ) */
(PID.TID 0000.0001)                 1.000000000000000E-04
(PID.TID 0000.0001)     ;
(PID.TID 0000.0001) beta =   /* Beta ( 1/(m.s) ) */
(PID.TID 0000.0001)                 9.999999999999999E-12
(PID.TID 0000.0001)     ;
(PID.TID 0000.0001) fPrime =   /* Second coriolis parameter ( 1/s ) */
(PID.TID 0000.0001)                 0.000000000000000E+00
(PID.TID 0000.0001)     ;
(PID.TID 0000.0001) rigidLid =   /* Rigid lid on/off flag */
(PID.TID 0000.0001)                   F
(PID.TID 0000.0001)     ;
(PID.TID 0000.0001) implicitFreeSurface =   /* Implicit free surface on/off flag */
(PID.TID 0000.0001)                   T
(PID.TID 0000.0001)     ;
(PID.TID 0000.0001) freeSurfFac =   /* Implicit free surface factor */
(PID.TID 0000.0001)                 1.000000000000000E+00
(PID.TID 0000.0001)     ;
(PID.TID 0000.0001) implicSurfPress =  /* Surface Pressure implicit factor (0-1)*/
(PID.TID 0000.0001)                 1.000000000000000E+00
(PID.TID 0000.0001)     ;
(PID.TID 0000.0001) implicDiv2DFlow =  /* Barot. Flow Div. implicit factor (0-1)*/
(PID.TID 0000.0001)                 1.000000000000000E+00
(PID.TID 0000.0001)     ;
(PID.TID 0000.0001) uniformLin_PhiSurf = /* use uniform Bo_surf on/off flag*/
(PID.TID 0000.0001)                   T
(PID.TID 0000.0001)     ;
(PID.TID 0000.0001) uniformFreeSurfLev = /* free-surface level-index is uniform */
(PID.TID 0000.0001)                   T
(PID.TID 0000.0001)     ;
(PID.TID 0000.0001) hFacMin =   /* minimum partial cell factor (hFac) */
(PID.TID 0000.0001)                 1.000000000000000E-01
(PID.TID 0000.0001)     ;
(PID.TID 0000.0001) hFacMinDr = /* minimum partial cell thickness ( m) */
(PID.TID 0000.0001)                 0.000000000000000E+00
(PID.TID 0000.0001)     ;
(PID.TID 0000.0001) exactConserv =  /* Exact Volume Conservation on/off flag*/
(PID.TID 0000.0001)                   F
(PID.TID 0000.0001)     ;
(PID.TID 0000.0001) linFSConserveTr = /* Tracer correction for Lin Free Surface on/off flag*/
(PID.TID 0000.0001)                   F
(PID.TID 0000.0001)     ;
(PID.TID 0000.0001) nonlinFreeSurf = /* Non-linear Free Surf. options (-1,0,1,2,3)*/
(PID.TID 0000.0001)                       0
(PID.TID 0000.0001)      -1,0= Off ; 1,2,3= On, 2=+rescale gU,gV, 3=+update cg2d solv.
(PID.TID 0000.0001)     ;
(PID.TID 0000.0001) hFacInf =   /* lower threshold for hFac (nonlinFreeSurf only)*/
(PID.TID 0000.0001)                 2.000000000000000E-01
(PID.TID 0000.0001)     ;
(PID.TID 0000.0001) hFacSup =   /* upper threshold for hFac (nonlinFreeSurf only)*/
(PID.TID 0000.0001)                 2.000000000000000E+00
(PID.TID 0000.0001)     ;
(PID.TID 0000.0001) select_rStar = /* r* Vertical coord. options (=0 r coord.; >0 uses r*)*/
(PID.TID 0000.0001)                       0
(PID.TID 0000.0001)     ;
(PID.TID 0000.0001) useRealFreshWaterFlux = /* Real Fresh Water Flux on/off flag*/
(PID.TID 0000.0001)                   F
(PID.TID 0000.0001)     ;
(PID.TID 0000.0001) temp_EvPrRn = /* Temp. of Evap/Prec/R (UNSET=use local T)(oC)*/
(PID.TID 0000.0001)                 1.234567000000000E+05
(PID.TID 0000.0001)     ;
(PID.TID 0000.0001) salt_EvPrRn = /* Salin. of Evap/Prec/R (UNSET=use local S)(psu)*/
(PID.TID 0000.0001)                 0.000000000000000E+00
(PID.TID 0000.0001)     ;
(PID.TID 0000.0001) selectAddFluid = /* option for mass source/sink of fluid (=0: off) */
(PID.TID 0000.0001)                       0
(PID.TID 0000.0001)     ;
(PID.TID 0000.0001) temp_addMass = /* Temp. of addMass array (UNSET=use local T)(oC)*/
(PID.TID 0000.0001)                 1.234567000000000E+05
(PID.TID 0000.0001)     ;
(PID.TID 0000.0001) salt_addMass = /* Salin. of addMass array (UNSET=use local S)(psu)*/
(PID.TID 0000.0001)                 0.000000000000000E+00
(PID.TID 0000.0001)     ;
(PID.TID 0000.0001) convertFW2Salt = /* convert F.W. Flux to Salt Flux (-1=use local S)(psu)*/
(PID.TID 0000.0001)                 3.500000000000000E+01
(PID.TID 0000.0001)     ;
(PID.TID 0000.0001) use3Dsolver = /* use 3-D pressure solver on/off flag */
(PID.TID 0000.0001)                   F
(PID.TID 0000.0001)     ;
(PID.TID 0000.0001) nonHydrostatic =  /* Non-Hydrostatic on/off flag */
(PID.TID 0000.0001)                   F
(PID.TID 0000.0001)     ;
(PID.TID 0000.0001) nh_Am2 = /* Non-Hydrostatic terms scaling factor */
(PID.TID 0000.0001)                 1.000000000000000E+00
(PID.TID 0000.0001)     ;
(PID.TID 0000.0001) implicitNHPress = /* Non-Hyd Pressure implicit factor (0-1)*/
(PID.TID 0000.0001)                 1.000000000000000E+00
(PID.TID 0000.0001)     ;
(PID.TID 0000.0001) selectNHfreeSurf = /* Non-Hyd (free-)Surface option */
(PID.TID 0000.0001)                       0
(PID.TID 0000.0001)     ;
(PID.TID 0000.0001) quasiHydrostatic = /* Quasi-Hydrostatic on/off flag */
(PID.TID 0000.0001)                   F
(PID.TID 0000.0001)     ;
(PID.TID 0000.0001) calc_wVelocity = /* vertical velocity calculation on/off flag */
(PID.TID 0000.0001)                   T
(PID.TID 0000.0001)     ;
(PID.TID 0000.0001) momStepping =  /* Momentum equation on/off flag */
(PID.TID 0000.0001)                   T
(PID.TID 0000.0001)     ;
(PID.TID 0000.0001) vectorInvariantMomentum= /* Vector-Invariant Momentum on/off */
(PID.TID 0000.0001)                   F
(PID.TID 0000.0001)     ;
(PID.TID 0000.0001) momAdvection =  /* Momentum advection on/off flag */
(PID.TID 0000.0001)                   T
(PID.TID 0000.0001)     ;
(PID.TID 0000.0001) momViscosity =  /* Momentum viscosity on/off flag */
(PID.TID 0000.0001)                   T
(PID.TID 0000.0001)     ;
(PID.TID 0000.0001) momImplVertAdv= /* Momentum implicit vert. advection on/off*/
(PID.TID 0000.0001)                   F
(PID.TID 0000.0001)     ;
(PID.TID 0000.0001) implicitViscosity = /* Implicit viscosity on/off flag */
(PID.TID 0000.0001)                   F
(PID.TID 0000.0001)     ;
(PID.TID 0000.0001) selectImplicitDrag= /* Implicit bot Drag options (0,1,2)*/
(PID.TID 0000.0001)                       0
(PID.TID 0000.0001)     0= Expl. ; 1= Impl. on provis. Vel ; 2= Fully Impl (with surf.P)
(PID.TID 0000.0001)     ;
(PID.TID 0000.0001) metricTerms =  /* metric-Terms on/off flag */
(PID.TID 0000.0001)                   F
(PID.TID 0000.0001)     ;
(PID.TID 0000.0001) useNHMTerms = /* Non-Hydrostatic Metric-Terms on/off */
(PID.TID 0000.0001)                   F
(PID.TID 0000.0001)     ;
(PID.TID 0000.0001) selectCoriMap = /* Coriolis Map options (0,1,2,3)*/
(PID.TID 0000.0001)                       1
(PID.TID 0000.0001)     0= f-Plane ; 1= Beta-Plane ; 2= Spherical ; 3= read from file
(PID.TID 0000.0001)     ;
(PID.TID 0000.0001) use3dCoriolis = /* 3-D Coriolis on/off flag */
(PID.TID 0000.0001)                   F
(PID.TID 0000.0001)     ;
(PID.TID 0000.0001) useCoriolis =  /* Coriolis on/off flag */
(PID.TID 0000.0001)                   T
(PID.TID 0000.0001)     ;
(PID.TID 0000.0001) useCDscheme =  /* CD scheme on/off flag */
(PID.TID 0000.0001)                   F
(PID.TID 0000.0001)     ;
(PID.TID 0000.0001) selectCoriScheme= /* Scheme selector for Coriolis-Term */
(PID.TID 0000.0001)                       0
(PID.TID 0000.0001)    = 0 : original discretization (simple averaging, no hFac)
(PID.TID 0000.0001)    = 1 : Wet-point averaging (Jamar & Ozer 1986)
(PID.TID 0000.0001)    = 2 : energy conserving scheme (no hFac weight)
(PID.TID 0000.0001)    = 3 : energy conserving scheme using Wet-point averaging
(PID.TID 0000.0001)     ;
(PID.TID 0000.0001) momForcing =  /* Momentum forcing on/off flag */
(PID.TID 0000.0001)                   T
(PID.TID 0000.0001)     ;
(PID.TID 0000.0001) momTidalForcing = /* Momentum Tidal forcing on/off flag */
(PID.TID 0000.0001)                   T
(PID.TID 0000.0001)     ;
(PID.TID 0000.0001) momPressureForcing =  /* Momentum pressure term on/off flag */
(PID.TID 0000.0001)                   T
(PID.TID 0000.0001)     ;
(PID.TID 0000.0001) implicitIntGravWave= /* Implicit Internal Gravity Wave flag */
(PID.TID 0000.0001)                   F
(PID.TID 0000.0001)     ;
(PID.TID 0000.0001) staggerTimeStep =    /* Stagger time stepping on/off flag */
(PID.TID 0000.0001)                   F
(PID.TID 0000.0001)     ;
(PID.TID 0000.0001) doResetHFactors = /* reset thickness factors @ each time-step */
(PID.TID 0000.0001)                   F
(PID.TID 0000.0001)     ;
(PID.TID 0000.0001) multiDimAdvection =  /* enable/disable Multi-Dim Advection */
(PID.TID 0000.0001)                   T
(PID.TID 0000.0001)     ;
(PID.TID 0000.0001) useMultiDimAdvec =   /* Multi-Dim Advection is/is-not used */
(PID.TID 0000.0001)                   F
(PID.TID 0000.0001)     ;
(PID.TID 0000.0001) implicitDiffusion = /* Implicit Diffusion on/off flag */
(PID.TID 0000.0001)                   F
(PID.TID 0000.0001)     ;
(PID.TID 0000.0001) tempStepping =  /* Temperature equation on/off flag */
(PID.TID 0000.0001)                   F
(PID.TID 0000.0001)     ;
(PID.TID 0000.0001) tempAdvection = /* Temperature advection on/off flag */
(PID.TID 0000.0001)                   F
(PID.TID 0000.0001)     ;
(PID.TID 0000.0001) tempImplVertAdv = /* Temp. implicit vert. advection on/off */
(PID.TID 0000.0001)                   F
(PID.TID 0000.0001)     ;
(PID.TID 0000.0001) tempForcing  =  /* Temperature forcing on/off flag */
(PID.TID 0000.0001)                   F
(PID.TID 0000.0001)     ;
(PID.TID 0000.0001) doThetaClimRelax = /* apply SST relaxation on/off flag */
(PID.TID 0000.0001)                   F
(PID.TID 0000.0001)     ;
(PID.TID 0000.0001) tempIsActiveTr = /* Temp. is a dynamically Active Tracer */
(PID.TID 0000.0001)                   F
(PID.TID 0000.0001)     ;
(PID.TID 0000.0001) saltStepping =  /* Salinity equation on/off flag */
(PID.TID 0000.0001)                   F
(PID.TID 0000.0001)     ;
(PID.TID 0000.0001) saltAdvection = /* Salinity advection on/off flag */
(PID.TID 0000.0001)                   F
(PID.TID 0000.0001)     ;
(PID.TID 0000.0001) saltImplVertAdv = /* Sali. implicit vert. advection on/off */
(PID.TID 0000.0001)                   F
(PID.TID 0000.0001)     ;
(PID.TID 0000.0001) saltForcing  =  /* Salinity forcing on/off flag */
(PID.TID 0000.0001)                   F
(PID.TID 0000.0001)     ;
(PID.TID 0000.0001) doSaltClimRelax = /* apply SSS relaxation on/off flag */
(PID.TID 0000.0001)                   F
(PID.TID 0000.0001)     ;
(PID.TID 0000.0001) saltIsActiveTr = /* Salt  is a dynamically Active Tracer */
(PID.TID 0000.0001)                   F
(PID.TID 0000.0001)     ;
(PID.TID 0000.0001)  readBinaryPrec = /* Precision used for reading binary files */
(PID.TID 0000.0001)                      32
(PID.TID 0000.0001)     ;
(PID.TID 0000.0001) writeBinaryPrec = /* Precision used for writing binary files */
(PID.TID 0000.0001)                      32
(PID.TID 0000.0001)     ;
(PID.TID 0000.0001)  rwSuffixType =   /* select format of mds file suffix */
(PID.TID 0000.0001)                       0
(PID.TID 0000.0001)    = 0 : myIter (I10.10) ;   = 1 : 100*myTime (100th sec) ;
(PID.TID 0000.0001)    = 2 : myTime (seconds);   = 3 : myTime/360 (10th of hr);
(PID.TID 0000.0001)    = 4 : myTime/3600 (hours)
(PID.TID 0000.0001)     ;
(PID.TID 0000.0001)  globalFiles = /* write "global" (=not per tile) files */
(PID.TID 0000.0001)                   F
(PID.TID 0000.0001)     ;
(PID.TID 0000.0001)  useSingleCpuIO = /* only master MPI process does I/O */
(PID.TID 0000.0001)                   T
(PID.TID 0000.0001)     ;
(PID.TID 0000.0001)  useSingleCpuInput = /* only master process reads input */
(PID.TID 0000.0001)                   T
(PID.TID 0000.0001)     ;
(PID.TID 0000.0001) /* debLev[*]  : level of debug & auxiliary message printing */
(PID.TID 0000.0001) debLevZero =  0 ; /* level of disabled aux. msg printing */
(PID.TID 0000.0001)    debLevA =  1 ; /* level of minimum  aux. msg printing */
(PID.TID 0000.0001)    debLevB =  2 ; /* level of low aux. print (report read-file opening)*/
(PID.TID 0000.0001)    debLevC =  3 ; /* level of moderate debug prt (most pkgs debug msg) */
(PID.TID 0000.0001)    debLevD =  4 ; /* level of enhanced debug prt (add DEBUG_STATS prt) */
(PID.TID 0000.0001)    debLevE =  5 ; /* level of extensive debug printing */
(PID.TID 0000.0001) debugLevel =  /* select debug printing level */
(PID.TID 0000.0001)                       2
(PID.TID 0000.0001)     ;
(PID.TID 0000.0001)  plotLevel =  /* select PLOT_FIELD printing level */
(PID.TID 0000.0001)                       2
(PID.TID 0000.0001)     ;
(PID.TID 0000.0001) //
(PID.TID 0000.0001) // Elliptic solver(s) paramters ( PARM02 in namelist )
(PID.TID 0000.0001) //
(PID.TID 0000.0001) cg2dMaxIters =   /* Upper limit on 2d con. grad iterations  */
(PID.TID 0000.0001)                    1000
(PID.TID 0000.0001)     ;
(PID.TID 0000.0001) cg2dChkResFreq =   /* 2d con. grad convergence test frequency */
(PID.TID 0000.0001)                       1
(PID.TID 0000.0001)     ;
(PID.TID 0000.0001) cg2dUseMinResSol= /* use cg2d last-iter(=0) / min-resid.(=1) solution */
(PID.TID 0000.0001)                       0
(PID.TID 0000.0001)     ;
(PID.TID 0000.0001) cg2dTargetResidual =   /* 2d con. grad target residual  */
(PID.TID 0000.0001)                 1.000000000000000E-07
(PID.TID 0000.0001)     ;
(PID.TID 0000.0001) cg2dTargetResWunit =   /* CG2d target residual [W units] */
(PID.TID 0000.0001)                -1.000000000000000E+00
(PID.TID 0000.0001)     ;
(PID.TID 0000.0001) cg2dPreCondFreq =   /* Freq. for updating cg2d preconditioner */
(PID.TID 0000.0001)                       1
(PID.TID 0000.0001)     ;
(PID.TID 0000.0001) useSRCGSolver =  /* use single reduction CG solver(s) */
(PID.TID 0000.0001)                   F
(PID.TID 0000.0001)     ;
(PID.TID 0000.0001) printResidualFreq = /* Freq. for printing CG residual */
(PID.TID 0000.0001)                       0
(PID.TID 0000.0001)     ;
(PID.TID 0000.0001) //
(PID.TID 0000.0001) // Time stepping paramters ( PARM03 in namelist )
(PID.TID 0000.0001) //
(PID.TID 0000.0001) deltaTMom =   /* Momentum equation timestep ( s ) */
(PID.TID 0000.0001)                 1.200000000000000E+03
(PID.TID 0000.0001)     ;
(PID.TID 0000.0001) deltaTFreeSurf = /* FreeSurface equation timestep ( s ) */
(PID.TID 0000.0001)                 1.200000000000000E+03
(PID.TID 0000.0001)     ;
(PID.TID 0000.0001) dTtracerLev =  /* Tracer equation timestep ( s ) */
(PID.TID 0000.0001)                 1.200000000000000E+03       /* K =  1 */
(PID.TID 0000.0001)     ;
(PID.TID 0000.0001) deltaTClock  =   /* Model clock timestep ( s ) */
(PID.TID 0000.0001)                 1.200000000000000E+03
(PID.TID 0000.0001)     ;
(PID.TID 0000.0001) cAdjFreq =   /* Convective adjustment interval ( s ) */
(PID.TID 0000.0001)                 0.000000000000000E+00
(PID.TID 0000.0001)     ;
(PID.TID 0000.0001) momForcingOutAB = /* =1: take Momentum Forcing out of Adams-Bash. stepping */
(PID.TID 0000.0001)                       0
(PID.TID 0000.0001)     ;
(PID.TID 0000.0001) tracForcingOutAB = /* =1: take T,S,pTr Forcing out of Adams-Bash. stepping */
(PID.TID 0000.0001)                       0
(PID.TID 0000.0001)     ;
(PID.TID 0000.0001) momDissip_In_AB = /* put Dissipation Tendency in Adams-Bash. stepping */
(PID.TID 0000.0001)                   T
(PID.TID 0000.0001)     ;
(PID.TID 0000.0001) doAB_onGtGs = /* apply AB on Tendencies (rather than on T,S)*/
(PID.TID 0000.0001)                   T
(PID.TID 0000.0001)     ;
(PID.TID 0000.0001) abEps =   /* Adams-Bashforth-2 stabilizing weight */
(PID.TID 0000.0001)                 1.000000000000000E-02
(PID.TID 0000.0001)     ;
(PID.TID 0000.0001) applyExchUV_early = /* Apply EXCH to U,V earlier in time-step */
(PID.TID 0000.0001)                   F
(PID.TID 0000.0001)     ;
(PID.TID 0000.0001) pickupStrictlyMatch= /* stop if pickup do not strictly match */
(PID.TID 0000.0001)                   T
(PID.TID 0000.0001)     ;
(PID.TID 0000.0001) nIter0   =   /* Run starting timestep number */
(PID.TID 0000.0001)                       0
(PID.TID 0000.0001)     ;
(PID.TID 0000.0001) nTimeSteps = /* Number of timesteps */
(PID.TID 0000.0001)                   21600
(PID.TID 0000.0001)     ;
(PID.TID 0000.0001) nEndIter =   /* Run ending timestep number */
(PID.TID 0000.0001)                   21600
(PID.TID 0000.0001)     ;
(PID.TID 0000.0001) baseTime =   /* Model base time ( s ) */
(PID.TID 0000.0001)                 0.000000000000000E+00
(PID.TID 0000.0001)     ;
(PID.TID 0000.0001) startTime =  /* Run start time ( s ) */
(PID.TID 0000.0001)                 0.000000000000000E+00
(PID.TID 0000.0001)     ;
(PID.TID 0000.0001) endTime  =   /* Integration ending time ( s ) */
(PID.TID 0000.0001)                 2.592000000000000E+07
(PID.TID 0000.0001)     ;
(PID.TID 0000.0001) pChkPtFreq = /* Permanent restart/pickup file interval ( s ) */
(PID.TID 0000.0001)                 3.110400000000000E+07
(PID.TID 0000.0001)     ;
(PID.TID 0000.0001) chkPtFreq  = /* Rolling restart/pickup file interval ( s ) */
(PID.TID 0000.0001)                 2.592000000000000E+07
(PID.TID 0000.0001)     ;
(PID.TID 0000.0001) pickup_write_mdsio =   /* Model IO flag. */
(PID.TID 0000.0001)                   T
(PID.TID 0000.0001)     ;
(PID.TID 0000.0001) pickup_read_mdsio =   /* Model IO flag. */
(PID.TID 0000.0001)                   T
(PID.TID 0000.0001)     ;
(PID.TID 0000.0001) writePickupAtEnd =   /* Model IO flag. */
(PID.TID 0000.0001)                   T
(PID.TID 0000.0001)     ;
(PID.TID 0000.0001) dumpFreq =   /* Model state write out interval ( s ). */
(PID.TID 0000.0001)                 8.640000000000000E+04
(PID.TID 0000.0001)     ;
(PID.TID 0000.0001) dumpInitAndLast= /* write out Initial & Last iter. model state */
(PID.TID 0000.0001)                   T
(PID.TID 0000.0001)     ;
(PID.TID 0000.0001) snapshot_mdsio =   /* Model IO flag. */
(PID.TID 0000.0001)                   T
(PID.TID 0000.0001)     ;
(PID.TID 0000.0001) monitorFreq =   /* Monitor output interval ( s ). */
(PID.TID 0000.0001)                 8.640000000000000E+04
(PID.TID 0000.0001)     ;
(PID.TID 0000.0001) monitorSelect = /* select group of variables to monitor */
(PID.TID 0000.0001)                       2
(PID.TID 0000.0001)     ;
(PID.TID 0000.0001) monitor_stdio =   /* Model IO flag. */
(PID.TID 0000.0001)                   T
(PID.TID 0000.0001)     ;
(PID.TID 0000.0001) externForcingPeriod =   /* forcing period (s) */
(PID.TID 0000.0001)                 0.000000000000000E+00
(PID.TID 0000.0001)     ;
(PID.TID 0000.0001) externForcingCycle =   /* period of the cyle (s). */
(PID.TID 0000.0001)                 0.000000000000000E+00
(PID.TID 0000.0001)     ;
(PID.TID 0000.0001) tauThetaClimRelax =   /* relaxation time scale (s) */
(PID.TID 0000.0001)                 0.000000000000000E+00
(PID.TID 0000.0001)     ;
(PID.TID 0000.0001) tauSaltClimRelax =   /* relaxation time scale (s) */
(PID.TID 0000.0001)                 0.000000000000000E+00
(PID.TID 0000.0001)     ;
(PID.TID 0000.0001) latBandClimRelax =   /* max. Lat. where relaxation */
(PID.TID 0000.0001)                 3.720000000000000E+06
(PID.TID 0000.0001)     ;
(PID.TID 0000.0001) //
(PID.TID 0000.0001) // Gridding paramters ( PARM04 in namelist )
(PID.TID 0000.0001) //
(PID.TID 0000.0001) usingCartesianGrid = /* Cartesian coordinates flag ( True/False ) */
(PID.TID 0000.0001)                   T
(PID.TID 0000.0001)     ;
(PID.TID 0000.0001) usingCylindricalGrid = /* Cylindrical coordinates flag ( True/False ) */
(PID.TID 0000.0001)                   F
(PID.TID 0000.0001)     ;
(PID.TID 0000.0001) usingSphericalPolarGrid = /* Spherical coordinates flag ( True/False ) */
(PID.TID 0000.0001)                   F
(PID.TID 0000.0001)     ;
(PID.TID 0000.0001) usingCurvilinearGrid = /* Curvilinear coordinates flag ( True/False ) */
(PID.TID 0000.0001)                   F
(PID.TID 0000.0001)     ;
(PID.TID 0000.0001) useMin4hFacEdges = /* set hFacW,S as minimum of adjacent hFacC factor */
(PID.TID 0000.0001)                   F
(PID.TID 0000.0001)     ;
(PID.TID 0000.0001) interViscAr_pCell = /* account for partial-cell in interior vert. viscosity */
(PID.TID 0000.0001)                   F
(PID.TID 0000.0001)     ;
(PID.TID 0000.0001) interDiffKr_pCell = /* account for partial-cell in interior vert. diffusion */
(PID.TID 0000.0001)                   F
(PID.TID 0000.0001)     ;
(PID.TID 0000.0001) pCellMix_select = /* option to enhance mixing near surface & bottom */
(PID.TID 0000.0001)                       0
(PID.TID 0000.0001)     ;
(PID.TID 0000.0001) selectSigmaCoord = /* Hybrid-Sigma Vert. Coordinate option */
(PID.TID 0000.0001)                       0
(PID.TID 0000.0001)     ;
(PID.TID 0000.0001) rSigmaBnd = /* r/sigma transition ( units of r ==  m ) */
(PID.TID 0000.0001)                 1.234567000000000E+05
(PID.TID 0000.0001)     ;
(PID.TID 0000.0001) rkSign =   /* index orientation relative to vertical coordinate */
(PID.TID 0000.0001)                -1.000000000000000E+00
(PID.TID 0000.0001)     ;
(PID.TID 0000.0001) gravitySign = /* gravity orientation relative to vertical coordinate */
(PID.TID 0000.0001)                -1.000000000000000E+00
(PID.TID 0000.0001)     ;
(PID.TID 0000.0001) seaLev_Z =  /* reference height of sea-level [m] */
(PID.TID 0000.0001)                 0.000000000000000E+00
(PID.TID 0000.0001)     ;
(PID.TID 0000.0001) top_Pres =  /* reference pressure at the top [Pa] */
(PID.TID 0000.0001)                 0.000000000000000E+00
(PID.TID 0000.0001)     ;
(PID.TID 0000.0001) mass2rUnit = /* convert mass per unit area [kg/m2] to r-units [m] */
(PID.TID 0000.0001)                 1.000000000000000E-03
(PID.TID 0000.0001)     ;
(PID.TID 0000.0001) rUnit2mass = /* convert r-units [m] to mass per unit area [kg/m2] */
(PID.TID 0000.0001)                 1.000000000000000E+03
(PID.TID 0000.0001)     ;
(PID.TID 0000.0001) drC =   /* C spacing ( units of r ) */
(PID.TID 0000.0001)     2 @  2.500000000000000E+03              /* K =  1:  2 */
(PID.TID 0000.0001)     ;
(PID.TID 0000.0001) drF =   /* W spacing ( units of r ) */
(PID.TID 0000.0001)                 5.000000000000000E+03       /* K =  1 */
(PID.TID 0000.0001)     ;
(PID.TID 0000.0001) delX = /* U spacing ( m - cartesian, degrees - spherical ) */
(PID.TID 0000.0001)    62 @  2.000000000000000E+04              /* I =  1: 62 */
(PID.TID 0000.0001)     ;
(PID.TID 0000.0001) delY = /* V spacing ( m - cartesian, degrees - spherical ) */
(PID.TID 0000.0001)    62 @  2.000000000000000E+04              /* J =  1: 62 */
(PID.TID 0000.0001)     ;
(PID.TID 0000.0001) xgOrigin = /* X-axis origin of West  edge (cartesian: m, lat-lon: deg) */
(PID.TID 0000.0001)                -2.000000000000000E+04
(PID.TID 0000.0001)     ;
(PID.TID 0000.0001) ygOrigin = /* Y-axis origin of South edge (cartesian: m, lat-lon: deg) */
(PID.TID 0000.0001)                -2.000000000000000E+04
(PID.TID 0000.0001)     ;
(PID.TID 0000.0001) rSphere =  /* Radius ( ignored - cartesian, m - spherical ) */
(PID.TID 0000.0001)                 6.370000000000000E+06
(PID.TID 0000.0001)     ;
(PID.TID 0000.0001) deepAtmosphere = /* Deep/Shallow Atmosphere flag (True/False) */
(PID.TID 0000.0001)                   F
(PID.TID 0000.0001)     ;
(PID.TID 0000.0001) xC =  /* xC(:,1,:,1) : P-point X coord ( deg. or m if cartesian) */
(PID.TID 0000.0001)                -1.000000000000000E+04,      /* I =  1 */
(PID.TID 0000.0001)                 1.000000000000000E+04,      /* I =  2 */
(PID.TID 0000.0001)                 3.000000000000000E+04,      /* I =  3 */
(PID.TID 0000.0001)                 5.000000000000000E+04,      /* I =  4 */
(PID.TID 0000.0001)                 7.000000000000000E+04,      /* I =  5 */
(PID.TID 0000.0001)                 9.000000000000000E+04,      /* I =  6 */
(PID.TID 0000.0001)                 1.100000000000000E+05,      /* I =  7 */
(PID.TID 0000.0001)                 1.300000000000000E+05,      /* I =  8 */
(PID.TID 0000.0001)                 1.500000000000000E+05,      /* I =  9 */
(PID.TID 0000.0001)                 1.700000000000000E+05,      /* I = 10 */
(PID.TID 0000.0001)                 1.900000000000000E+05,      /* I = 11 */
(PID.TID 0000.0001)                 2.100000000000000E+05,      /* I = 12 */
(PID.TID 0000.0001)                 2.300000000000000E+05,      /* I = 13 */
(PID.TID 0000.0001)                 2.500000000000000E+05,      /* I = 14 */
(PID.TID 0000.0001)                 2.700000000000000E+05,      /* I = 15 */
(PID.TID 0000.0001)                 2.900000000000000E+05,      /* I = 16 */
(PID.TID 0000.0001)                 3.100000000000000E+05,      /* I = 17 */
(PID.TID 0000.0001)                 3.300000000000000E+05,      /* I = 18 */
(PID.TID 0000.0001)                 3.500000000000000E+05,      /* I = 19 */
(PID.TID 0000.0001)                 3.700000000000000E+05,      /* I = 20 */
(PID.TID 0000.0001)                 3.900000000000000E+05,      /* I = 21 */
(PID.TID 0000.0001)                 4.100000000000000E+05,      /* I = 22 */
(PID.TID 0000.0001)                 4.300000000000000E+05,      /* I = 23 */
(PID.TID 0000.0001)                 4.500000000000000E+05,      /* I = 24 */
(PID.TID 0000.0001)                 4.700000000000000E+05,      /* I = 25 */
(PID.TID 0000.0001)                 4.900000000000000E+05,      /* I = 26 */
(PID.TID 0000.0001)                 5.100000000000000E+05,      /* I = 27 */
(PID.TID 0000.0001)                 5.300000000000000E+05,      /* I = 28 */
(PID.TID 0000.0001)                 5.500000000000000E+05,      /* I = 29 */
(PID.TID 0000.0001)                 5.700000000000000E+05,      /* I = 30 */
(PID.TID 0000.0001)                 5.900000000000000E+05,      /* I = 31 */
(PID.TID 0000.0001)                 6.100000000000000E+05,      /* I = 32 */
(PID.TID 0000.0001)                 6.300000000000000E+05,      /* I = 33 */
(PID.TID 0000.0001)                 6.500000000000000E+05,      /* I = 34 */
(PID.TID 0000.0001)                 6.700000000000000E+05,      /* I = 35 */
(PID.TID 0000.0001)                 6.900000000000000E+05,      /* I = 36 */
(PID.TID 0000.0001)                 7.100000000000000E+05,      /* I = 37 */
(PID.TID 0000.0001)                 7.300000000000000E+05,      /* I = 38 */
(PID.TID 0000.0001)                 7.500000000000000E+05,      /* I = 39 */
(PID.TID 0000.0001)                 7.700000000000000E+05,      /* I = 40 */
(PID.TID 0000.0001)                 7.900000000000000E+05,      /* I = 41 */
(PID.TID 0000.0001)                 8.100000000000000E+05,      /* I = 42 */
(PID.TID 0000.0001)                 8.300000000000000E+05,      /* I = 43 */
(PID.TID 0000.0001)                 8.500000000000000E+05,      /* I = 44 */
(PID.TID 0000.0001)                 8.700000000000000E+05,      /* I = 45 */
(PID.TID 0000.0001)                 8.900000000000000E+05,      /* I = 46 */
(PID.TID 0000.0001)                 9.100000000000000E+05,      /* I = 47 */
(PID.TID 0000.0001)                 9.300000000000000E+05,      /* I = 48 */
(PID.TID 0000.0001)                 9.500000000000000E+05,      /* I = 49 */
(PID.TID 0000.0001)                 9.700000000000000E+05,      /* I = 50 */
(PID.TID 0000.0001)                 9.900000000000000E+05,      /* I = 51 */
(PID.TID 0000.0001)                 1.010000000000000E+06,      /* I = 52 */
(PID.TID 0000.0001)                 1.030000000000000E+06,      /* I = 53 */
(PID.TID 0000.0001)                 1.050000000000000E+06,      /* I = 54 */
(PID.TID 0000.0001)                 1.070000000000000E+06,      /* I = 55 */
(PID.TID 0000.0001)                 1.090000000000000E+06,      /* I = 56 */
(PID.TID 0000.0001)                 1.110000000000000E+06,      /* I = 57 */
(PID.TID 0000.0001)                 1.130000000000000E+06,      /* I = 58 */
(PID.TID 0000.0001)                 1.150000000000000E+06,      /* I = 59 */
(PID.TID 0000.0001)                 1.170000000000000E+06,      /* I = 60 */
(PID.TID 0000.0001)                 1.190000000000000E+06,      /* I = 61 */
(PID.TID 0000.0001)                 1.210000000000000E+06       /* I = 62 */
(PID.TID 0000.0001)     ;
(PID.TID 0000.0001) yC =  /* yC(1,:,1,:) : P-point Y coord ( deg. or m if cartesian) */
(PID.TID 0000.0001)                -1.000000000000000E+04,      /* J =  1 */
(PID.TID 0000.0001)                 1.000000000000000E+04,      /* J =  2 */
(PID.TID 0000.0001)                 3.000000000000000E+04,      /* J =  3 */
(PID.TID 0000.0001)                 5.000000000000000E+04,      /* J =  4 */
(PID.TID 0000.0001)                 7.000000000000000E+04,      /* J =  5 */
(PID.TID 0000.0001)                 9.000000000000000E+04,      /* J =  6 */
(PID.TID 0000.0001)                 1.100000000000000E+05,      /* J =  7 */
(PID.TID 0000.0001)                 1.300000000000000E+05,      /* J =  8 */
(PID.TID 0000.0001)                 1.500000000000000E+05,      /* J =  9 */
(PID.TID 0000.0001)                 1.700000000000000E+05,      /* J = 10 */
(PID.TID 0000.0001)                 1.900000000000000E+05,      /* J = 11 */
(PID.TID 0000.0001)                 2.100000000000000E+05,      /* J = 12 */
(PID.TID 0000.0001)                 2.300000000000000E+05,      /* J = 13 */
(PID.TID 0000.0001)                 2.500000000000000E+05,      /* J = 14 */
(PID.TID 0000.0001)                 2.700000000000000E+05,      /* J = 15 */
(PID.TID 0000.0001)                 2.900000000000000E+05,      /* J = 16 */
(PID.TID 0000.0001)                 3.100000000000000E+05,      /* J = 17 */
(PID.TID 0000.0001)                 3.300000000000000E+05,      /* J = 18 */
(PID.TID 0000.0001)                 3.500000000000000E+05,      /* J = 19 */
(PID.TID 0000.0001)                 3.700000000000000E+05,      /* J = 20 */
(PID.TID 0000.0001)                 3.900000000000000E+05,      /* J = 21 */
(PID.TID 0000.0001)                 4.100000000000000E+05,      /* J = 22 */
(PID.TID 0000.0001)                 4.300000000000000E+05,      /* J = 23 */
(PID.TID 0000.0001)                 4.500000000000000E+05,      /* J = 24 */
(PID.TID 0000.0001)                 4.700000000000000E+05,      /* J = 25 */
(PID.TID 0000.0001)                 4.900000000000000E+05,      /* J = 26 */
(PID.TID 0000.0001)                 5.100000000000000E+05,      /* J = 27 */
(PID.TID 0000.0001)                 5.300000000000000E+05,      /* J = 28 */
(PID.TID 0000.0001)                 5.500000000000000E+05,      /* J = 29 */
(PID.TID 0000.0001)                 5.700000000000000E+05,      /* J = 30 */
(PID.TID 0000.0001)                 5.900000000000000E+05,      /* J = 31 */
(PID.TID 0000.0001)                 6.100000000000000E+05,      /* J = 32 */
(PID.TID 0000.0001)                 6.300000000000000E+05,      /* J = 33 */
(PID.TID 0000.0001)                 6.500000000000000E+05,      /* J = 34 */
(PID.TID 0000.0001)                 6.700000000000000E+05,      /* J = 35 */
(PID.TID 0000.0001)                 6.900000000000000E+05,      /* J = 36 */
(PID.TID 0000.0001)                 7.100000000000000E+05,      /* J = 37 */
(PID.TID 0000.0001)                 7.300000000000000E+05,      /* J = 38 */
(PID.TID 0000.0001)                 7.500000000000000E+05,      /* J = 39 */
(PID.TID 0000.0001)                 7.700000000000000E+05,      /* J = 40 */
(PID.TID 0000.0001)                 7.900000000000000E+05,      /* J = 41 */
(PID.TID 0000.0001)                 8.100000000000000E+05,      /* J = 42 */
(PID.TID 0000.0001)                 8.300000000000000E+05,      /* J = 43 */
(PID.TID 0000.0001)                 8.500000000000000E+05,      /* J = 44 */
(PID.TID 0000.0001)                 8.700000000000000E+05,      /* J = 45 */
(PID.TID 0000.0001)                 8.900000000000000E+05,      /* J = 46 */
(PID.TID 0000.0001)                 9.100000000000000E+05,      /* J = 47 */
(PID.TID 0000.0001)                 9.300000000000000E+05,      /* J = 48 */
(PID.TID 0000.0001)                 9.500000000000000E+05,      /* J = 49 */
(PID.TID 0000.0001)                 9.700000000000000E+05,      /* J = 50 */
(PID.TID 0000.0001)                 9.900000000000000E+05,      /* J = 51 */
(PID.TID 0000.0001)                 1.010000000000000E+06,      /* J = 52 */
(PID.TID 0000.0001)                 1.030000000000000E+06,      /* J = 53 */
(PID.TID 0000.0001)                 1.050000000000000E+06,      /* J = 54 */
(PID.TID 0000.0001)                 1.070000000000000E+06,      /* J = 55 */
(PID.TID 0000.0001)                 1.090000000000000E+06,      /* J = 56 */
(PID.TID 0000.0001)                 1.110000000000000E+06,      /* J = 57 */
(PID.TID 0000.0001)                 1.130000000000000E+06,      /* J = 58 */
(PID.TID 0000.0001)                 1.150000000000000E+06,      /* J = 59 */
(PID.TID 0000.0001)                 1.170000000000000E+06,      /* J = 60 */
(PID.TID 0000.0001)                 1.190000000000000E+06,      /* J = 61 */
(PID.TID 0000.0001)                 1.210000000000000E+06       /* J = 62 */
(PID.TID 0000.0001)     ;
(PID.TID 0000.0001) rcoord = /* P-point R coordinate (  units of r ) */
(PID.TID 0000.0001)                -2.500000000000000E+03       /* K =  1 */
(PID.TID 0000.0001)     ;
(PID.TID 0000.0001) rF =   /* W-Interf. R coordinate (  units of r ) */
(PID.TID 0000.0001)                 0.000000000000000E+00,      /* K =  1 */
(PID.TID 0000.0001)                -5.000000000000000E+03       /* K =  2 */
(PID.TID 0000.0001)     ;
(PID.TID 0000.0001) deepFacC = /* deep-model grid factor @ cell-Center (-) */
(PID.TID 0000.0001)                 1.000000000000000E+00       /* K =  1 */
(PID.TID 0000.0001)     ;
(PID.TID 0000.0001) deepFacF = /* deep-model grid factor @ W-Interface (-) */
(PID.TID 0000.0001)     2 @  1.000000000000000E+00              /* K =  1:  2 */
(PID.TID 0000.0001)     ;
(PID.TID 0000.0001) rVel2wUnit = /* convert units: rVel -> wSpeed (=1 if z-coord)*/
(PID.TID 0000.0001)     2 @  1.000000000000000E+00              /* K =  1:  2 */
(PID.TID 0000.0001)     ;
(PID.TID 0000.0001) wUnit2rVel = /* convert units: wSpeed -> rVel (=1 if z-coord)*/
(PID.TID 0000.0001)     2 @  1.000000000000000E+00              /* K =  1:  2 */
(PID.TID 0000.0001)     ;
(PID.TID 0000.0001) dBdrRef = /* Vertical grad. of reference buoyancy [(m/s/r)^2] */
(PID.TID 0000.0001)                 0.000000000000000E+00       /* K =  1 */
(PID.TID 0000.0001)     ;
(PID.TID 0000.0001) rotateGrid = /* use rotated grid ( True/False ) */
(PID.TID 0000.0001)                   F
(PID.TID 0000.0001)     ;
(PID.TID 0000.0001) phiEuler = /* Euler angle, rotation about original z-coordinate [rad] */
(PID.TID 0000.0001)                 0.000000000000000E+00
(PID.TID 0000.0001)     ;
(PID.TID 0000.0001) thetaEuler = /* Euler angle, rotation about new x-coordinate [rad] */
(PID.TID 0000.0001)                 0.000000000000000E+00
(PID.TID 0000.0001)     ;
(PID.TID 0000.0001) psiEuler = /* Euler angle, rotation about new z-coordinate [rad] */
(PID.TID 0000.0001)                 0.000000000000000E+00
(PID.TID 0000.0001)     ;
(PID.TID 0000.0001) dxF =  /* dxF(:,1,:,1) ( units: m ) */
(PID.TID 0000.0001)    62 @  2.000000000000000E+04              /* I =  1: 62 */
(PID.TID 0000.0001)     ;
(PID.TID 0000.0001) dxF =  /* dxF(1,:,1,:) ( units: m ) */
(PID.TID 0000.0001)    62 @  2.000000000000000E+04              /* J =  1: 62 */
(PID.TID 0000.0001)     ;
(PID.TID 0000.0001) dyF =  /* dyF(:,1,:,1) ( units: m ) */
(PID.TID 0000.0001)    62 @  2.000000000000000E+04              /* I =  1: 62 */
(PID.TID 0000.0001)     ;
(PID.TID 0000.0001) dyF =  /* dyF(1,:,1,:) ( units: m ) */
(PID.TID 0000.0001)    62 @  2.000000000000000E+04              /* J =  1: 62 */
(PID.TID 0000.0001)     ;
(PID.TID 0000.0001) dxG =  /* dxG(:,1,:,1) ( units: m ) */
(PID.TID 0000.0001)    62 @  2.000000000000000E+04              /* I =  1: 62 */
(PID.TID 0000.0001)     ;
(PID.TID 0000.0001) dxG =  /* dxG(1,:,1,:) ( units: m ) */
(PID.TID 0000.0001)    62 @  2.000000000000000E+04              /* J =  1: 62 */
(PID.TID 0000.0001)     ;
(PID.TID 0000.0001) dyG =  /* dyG(:,1,:,1) ( units: m ) */
(PID.TID 0000.0001)    62 @  2.000000000000000E+04              /* I =  1: 62 */
(PID.TID 0000.0001)     ;
(PID.TID 0000.0001) dyG =  /* dyG(1,:,1,:) ( units: m ) */
(PID.TID 0000.0001)    62 @  2.000000000000000E+04              /* J =  1: 62 */
(PID.TID 0000.0001)     ;
(PID.TID 0000.0001) dxC =  /* dxC(:,1,:,1) ( units: m ) */
(PID.TID 0000.0001)    62 @  2.000000000000000E+04              /* I =  1: 62 */
(PID.TID 0000.0001)     ;
(PID.TID 0000.0001) dxC =  /* dxC(1,:,1,:) ( units: m ) */
(PID.TID 0000.0001)    62 @  2.000000000000000E+04              /* J =  1: 62 */
(PID.TID 0000.0001)     ;
(PID.TID 0000.0001) dyC =  /* dyC(:,1,:,1) ( units: m ) */
(PID.TID 0000.0001)    62 @  2.000000000000000E+04              /* I =  1: 62 */
(PID.TID 0000.0001)     ;
(PID.TID 0000.0001) dyC =  /* dyC(1,:,1,:) ( units: m ) */
(PID.TID 0000.0001)    62 @  2.000000000000000E+04              /* J =  1: 62 */
(PID.TID 0000.0001)     ;
(PID.TID 0000.0001) dxV =  /* dxV(:,1,:,1) ( units: m ) */
(PID.TID 0000.0001)    62 @  2.000000000000000E+04              /* I =  1: 62 */
(PID.TID 0000.0001)     ;
(PID.TID 0000.0001) dxV =  /* dxV(1,:,1,:) ( units: m ) */
(PID.TID 0000.0001)    62 @  2.000000000000000E+04              /* J =  1: 62 */
(PID.TID 0000.0001)     ;
(PID.TID 0000.0001) dyU =  /* dyU(:,1,:,1) ( units: m ) */
(PID.TID 0000.0001)    62 @  2.000000000000000E+04              /* I =  1: 62 */
(PID.TID 0000.0001)     ;
(PID.TID 0000.0001) dyU =  /* dyU(1,:,1,:) ( units: m ) */
(PID.TID 0000.0001)    62 @  2.000000000000000E+04              /* J =  1: 62 */
(PID.TID 0000.0001)     ;
(PID.TID 0000.0001) rA  =  /* rA (:,1,:,1) ( units: m^2 ) */
(PID.TID 0000.0001)    62 @  4.000000000000000E+08              /* I =  1: 62 */
(PID.TID 0000.0001)     ;
(PID.TID 0000.0001) rA  =  /* rA (1,:,1,:) ( units: m^2 ) */
(PID.TID 0000.0001)    62 @  4.000000000000000E+08              /* J =  1: 62 */
(PID.TID 0000.0001)     ;
(PID.TID 0000.0001) rAw =  /* rAw(:,1,:,1) ( units: m^2 ) */
(PID.TID 0000.0001)    62 @  4.000000000000000E+08              /* I =  1: 62 */
(PID.TID 0000.0001)     ;
(PID.TID 0000.0001) rAw =  /* rAw(1,:,1,:) ( units: m^2 ) */
(PID.TID 0000.0001)    62 @  4.000000000000000E+08              /* J =  1: 62 */
(PID.TID 0000.0001)     ;
(PID.TID 0000.0001) rAs =  /* rAs(:,1,:,1) ( units: m^2 ) */
(PID.TID 0000.0001)    62 @  4.000000000000000E+08              /* I =  1: 62 */
(PID.TID 0000.0001)     ;
(PID.TID 0000.0001) rAs =  /* rAs(1,:,1,:) ( units: m^2 ) */
(PID.TID 0000.0001)    62 @  4.000000000000000E+08              /* J =  1: 62 */
(PID.TID 0000.0001)     ;
(PID.TID 0000.0001) globalArea = /* Integrated horizontal Area (m^2) */
(PID.TID 0000.0001)                 1.440000000000000E+12
(PID.TID 0000.0001)     ;
(PID.TID 0000.0001) // =======================================================
(PID.TID 0000.0001) // End of Model config. summary
(PID.TID 0000.0001) // =======================================================
(PID.TID 0000.0001) 
(PID.TID 0000.0001) == Packages configuration : Check & print summary ==
(PID.TID 0000.0001) 
(PID.TID 0000.0001) // =======================================================
(PID.TID 0000.0001) // Check Model config. (CONFIG_CHECK):
(PID.TID 0000.0001) // CONFIG_CHECK : Normal End
(PID.TID 0000.0001) // =======================================================
(PID.TID 0000.0001) 
(PID.TID 0000.0001) Start initial hydrostatic pressure computation
(PID.TID 0000.0001) Pressure is predetermined for buoyancyRelation OCEANIC
(PID.TID 0000.0001) 
(PID.TID 0000.0001)  MDS_READ_FIELD: opening global file: windx_cosy.bin
(PID.TID 0000.0001) // =======================================================
(PID.TID 0000.0001) // Model current state
(PID.TID 0000.0001) // =======================================================
(PID.TID 0000.0001) 
(PID.TID 0000.0001) // =======================================================
(PID.TID 0000.0001) // Begin MONITOR dynamic field statistics
(PID.TID 0000.0001) // =======================================================
(PID.TID 0000.0001) %MON time_tsnumber                =                     0
(PID.TID 0000.0001) %MON time_secondsf                =   0.0000000000000E+00
(PID.TID 0000.0001) %MON dynstat_eta_max              =   0.0000000000000E+00
(PID.TID 0000.0001) %MON dynstat_eta_min              =   0.0000000000000E+00
(PID.TID 0000.0001) %MON dynstat_eta_mean             =   0.0000000000000E+00
(PID.TID 0000.0001) %MON dynstat_eta_sd               =   0.0000000000000E+00
(PID.TID 0000.0001) %MON dynstat_eta_del2             =   0.0000000000000E+00
(PID.TID 0000.0001) %MON dynstat_uvel_max             =   0.0000000000000E+00
(PID.TID 0000.0001) %MON dynstat_uvel_min             =   0.0000000000000E+00
(PID.TID 0000.0001) %MON dynstat_uvel_mean            =   0.0000000000000E+00
(PID.TID 0000.0001) %MON dynstat_uvel_sd              =   0.0000000000000E+00
(PID.TID 0000.0001) %MON dynstat_uvel_del2            =   0.0000000000000E+00
(PID.TID 0000.0001) %MON dynstat_vvel_max             =   0.0000000000000E+00
(PID.TID 0000.0001) %MON dynstat_vvel_min             =   0.0000000000000E+00
(PID.TID 0000.0001) %MON dynstat_vvel_mean            =   0.0000000000000E+00
(PID.TID 0000.0001) %MON dynstat_vvel_sd              =   0.0000000000000E+00
(PID.TID 0000.0001) %MON dynstat_vvel_del2            =   0.0000000000000E+00
(PID.TID 0000.0001) %MON dynstat_wvel_max             =   0.0000000000000E+00
(PID.TID 0000.0001) %MON dynstat_wvel_min             =   0.0000000000000E+00
(PID.TID 0000.0001) %MON dynstat_wvel_mean            =   0.0000000000000E+00
(PID.TID 0000.0001) %MON dynstat_wvel_sd              =   0.0000000000000E+00
(PID.TID 0000.0001) %MON dynstat_wvel_del2            =   0.0000000000000E+00
(PID.TID 0000.0001) %MON dynstat_theta_max            =   2.0000000000000E+01
(PID.TID 0000.0001) %MON dynstat_theta_min            =   2.0000000000000E+01
(PID.TID 0000.0001) %MON dynstat_theta_mean           =   2.0000000000000E+01
(PID.TID 0000.0001) %MON dynstat_theta_sd             =   3.8014036363165E-13
(PID.TID 0000.0001) %MON dynstat_theta_del2           =   0.0000000000000E+00
(PID.TID 0000.0001) %MON dynstat_salt_max             =   3.0000000000000E+01
(PID.TID 0000.0001) %MON dynstat_salt_min             =   3.0000000000000E+01
(PID.TID 0000.0001) %MON dynstat_salt_mean            =   2.9999999999999E+01
(PID.TID 0000.0001) %MON dynstat_salt_sd              =   5.5777604757167E-13
(PID.TID 0000.0001) %MON dynstat_salt_del2            =   0.0000000000000E+00
(PID.TID 0000.0001) %MON trAdv_CFL_u_max              =   0.0000000000000E+00
(PID.TID 0000.0001) %MON trAdv_CFL_v_max              =   0.0000000000000E+00
(PID.TID 0000.0001) %MON trAdv_CFL_w_max              =   0.0000000000000E+00
(PID.TID 0000.0001) %MON advcfl_uvel_max              =   0.0000000000000E+00
(PID.TID 0000.0001) %MON advcfl_vvel_max              =   0.0000000000000E+00
(PID.TID 0000.0001) %MON advcfl_wvel_max              =   0.0000000000000E+00
(PID.TID 0000.0001) %MON advcfl_W_hf_max              =   0.0000000000000E+00
(PID.TID 0000.0001) %MON pe_b_mean                    =   0.0000000000000E+00
(PID.TID 0000.0001) %MON ke_max                       =   0.0000000000000E+00
(PID.TID 0000.0001) %MON ke_mean                      =   0.0000000000000E+00
(PID.TID 0000.0001) %MON ke_vol                       =   6.8893493896486E+15
(PID.TID 0000.0001) %MON vort_r_min                   =   0.0000000000000E+00
(PID.TID 0000.0001) %MON vort_r_max                   =   0.0000000000000E+00
(PID.TID 0000.0001) %MON vort_a_mean                  =   1.0600000000000E-04
(PID.TID 0000.0001) %MON vort_a_sd                    =   3.5177554171049E-06
(PID.TID 0000.0001) %MON vort_p_mean                  =   1.1652272308690E-04
(PID.TID 0000.0001) %MON vort_p_sd                    =   4.1500952341243E-05
(PID.TID 0000.0001) %MON surfExpan_theta_mean         =   0.0000000000000E+00
(PID.TID 0000.0001) %MON surfExpan_salt_mean          =   0.0000000000000E+00
(PID.TID 0000.0001) // =======================================================
(PID.TID 0000.0001) // End MONITOR dynamic field statistics
(PID.TID 0000.0001) // =======================================================
(PID.TID 0000.0001) SOLVE_FOR_PRESSURE: putPmEinXvector =    F
 cg2d: Sum(rhs),rhsMax =  -2.22044604925031E-16  4.00067911012743E-04
 cg2d: Sum(rhs),rhsMax =  -2.71447442301564E-09  4.51747661453218E-04
 cg2d: Sum(rhs),rhsMax =  -3.36945737977601E-09  4.70375702558235E-04
 cg2d: Sum(rhs),rhsMax =  -4.00008415279984E-09  4.88539513592493E-04
 cg2d: Sum(rhs),rhsMax =  -4.62368632270227E-09  5.05541541262159E-04
 cg2d: Sum(rhs),rhsMax =  -5.09425202022129E-09  5.23244531424398E-04
 cg2d: Sum(rhs),rhsMax =  -6.88751755628658E-09  5.44093149566543E-04
 cg2d: Sum(rhs),rhsMax =  -7.90953302853836E-09  5.69311021073240E-04
 cg2d: Sum(rhs),rhsMax =  -8.66821969758291E-09  5.99143784974841E-04
 cg2d: Sum(rhs),rhsMax =  -9.04396313394784E-09  6.32568400719921E-04
 cg2d: Sum(rhs),rhsMax =  -9.64477886444826E-09  6.68199533409829E-04
 cg2d: Sum(rhs),rhsMax =  -1.07478342892264E-08  7.04948634503997E-04
 cg2d: Sum(rhs),rhsMax =  -1.13882864249959E-08  7.42233035997162E-04
 cg2d: Sum(rhs),rhsMax =  -1.19823651556494E-08  7.80014122060225E-04
 cg2d: Sum(rhs),rhsMax =  -1.26217618579005E-08  8.18789553698037E-04
 cg2d: Sum(rhs),rhsMax =  -1.32592979373847E-08  8.57990306046096E-04
 cg2d: Sum(rhs),rhsMax =  -1.38911987468404E-08  8.98392745663309E-04
 cg2d: Sum(rhs),rhsMax =  -1.45362167303098E-08  9.39116483635000E-04
 cg2d: Sum(rhs),rhsMax =  -1.51671378234575E-08  9.80953098521464E-04
 cg2d: Sum(rhs),rhsMax =  -1.57806320788545E-08  1.02282379581645E-03
 cg2d: Sum(rhs),rhsMax =  -1.71201816057120E-08  1.06533341914003E-03
 cg2d: Sum(rhs),rhsMax =  -1.84135064973390E-08  1.10821463459551E-03
 cg2d: Sum(rhs),rhsMax =  -1.96791534179397E-08  1.15108860142674E-03
 cg2d: Sum(rhs),rhsMax =  -2.09053873656551E-08  1.19442513502156E-03
 cg2d: Sum(rhs),rhsMax =  -2.20803506034706E-08  1.23826066386620E-03
 cg2d: Sum(rhs),rhsMax =  -2.84344277567961E-08  1.28212773493386E-03
 cg2d: Sum(rhs),rhsMax =  -3.25337657369751E-08  1.32602420768895E-03
 cg2d: Sum(rhs),rhsMax =  -3.71218246142391E-08  1.37025034022949E-03
 cg2d: Sum(rhs),rhsMax =  -4.31735206474215E-08  1.41499068985485E-03
 cg2d: Sum(rhs),rhsMax =  -4.95820140777870E-08  1.45974992569212E-03
 cg2d: Sum(rhs),rhsMax =  -5.59497022600830E-08  1.50452819258319E-03
 cg2d: Sum(rhs),rhsMax =  -6.21444431747609E-08  1.54932660772372E-03
 cg2d: Sum(rhs),rhsMax =  -6.81218196851852E-08  1.59414627690524E-03
 cg2d: Sum(rhs),rhsMax =  -7.38688260837339E-08  1.63949505884270E-03
 cg2d: Sum(rhs),rhsMax =  -7.94385379143669E-08  1.68503097376170E-03
 cg2d: Sum(rhs),rhsMax =  -8.48803048680846E-08  1.73058866125197E-03
 cg2d: Sum(rhs),rhsMax =  -9.02138375669104E-08  1.77616793956010E-03
 cg2d: Sum(rhs),rhsMax =  -9.54433490296669E-08  1.82176872365526E-03
 cg2d: Sum(rhs),rhsMax =  -1.00565966693056E-07  1.86739103891915E-03
 cg2d: Sum(rhs),rhsMax =  -1.05579566395120E-07  1.91303496849535E-03
 cg2d: Sum(rhs),rhsMax =  -1.10485273485672E-07  1.95870059521707E-03
 cg2d: Sum(rhs),rhsMax =  -1.15272215189810E-07  2.00464737465737E-03
 cg2d: Sum(rhs),rhsMax =  -1.21291986010519E-07  2.05089887383518E-03
 cg2d: Sum(rhs),rhsMax =  -1.27175578346073E-07  2.09717197941866E-03
 cg2d: Sum(rhs),rhsMax =  -1.32929234064605E-07  2.14346670289212E-03
 cg2d: Sum(rhs),rhsMax =  -1.38558373635744E-07  2.18978307737877E-03
 cg2d: Sum(rhs),rhsMax =  -1.44067061738640E-07  2.23612114860278E-03
 cg2d: Sum(rhs),rhsMax =  -1.49459858558854E-07  2.28248096688653E-03
 cg2d: Sum(rhs),rhsMax =  -1.54740495084127E-07  2.32886257944690E-03
 cg2d: Sum(rhs),rhsMax =  -1.59913057171113E-07  2.37526602625242E-03
 cg2d: Sum(rhs),rhsMax =  -1.64981591180280E-07  2.42169133998010E-03
 cg2d: Sum(rhs),rhsMax =  -1.69949042894135E-07  2.46813854865345E-03
 cg2d: Sum(rhs),rhsMax =  -1.74819999337883E-07  2.51460767896895E-03
 cg2d: Sum(rhs),rhsMax =  -1.79597233043727E-07  2.56109875880764E-03
 cg2d: Sum(rhs),rhsMax =  -1.84283757614923E-07  2.60761181832687E-03
 cg2d: Sum(rhs),rhsMax =  -1.88856478872124E-07  2.65451461566431E-03
 cg2d: Sum(rhs),rhsMax =  -1.93341329626784E-07  2.70147858632021E-03
 cg2d: Sum(rhs),rhsMax =  -1.99496935485155E-07  2.74846429164086E-03
 cg2d: Sum(rhs),rhsMax =  -2.05530134245180E-07  2.79547175295333E-03
 cg2d: Sum(rhs),rhsMax =  -2.11444900324875E-07  2.84250100339535E-03
 cg2d: Sum(rhs),rhsMax =  -2.17246173342400E-07  2.88955207042223E-03
 cg2d: Sum(rhs),rhsMax =  -2.22937955540736E-07  2.93662498072535E-03
 cg2d: Sum(rhs),rhsMax =  -2.28524148174203E-07  2.98371976024745E-03
 cg2d: Sum(rhs),rhsMax =  -2.34008759092408E-07  3.03083643442239E-03
 cg2d: Sum(rhs),rhsMax =  -2.39394980741658E-07  3.07797502841671E-03
 cg2d: Sum(rhs),rhsMax =  -2.44686905279123E-07  3.12513556726819E-03
 cg2d: Sum(rhs),rhsMax =  -2.49887275843852E-07  3.17231807591595E-03
 cg2d: Sum(rhs),rhsMax =  -2.54999600296513E-07  3.21952257915361E-03
 cg2d: Sum(rhs),rhsMax =  -2.60027098936133E-07  3.26674910154238E-03
 cg2d: Sum(rhs),rhsMax =  -2.64972371093186E-07  3.31399766731847E-03
 cg2d: Sum(rhs),rhsMax =  -2.69838268805722E-07  3.36126830031968E-03
 cg2d: Sum(rhs),rhsMax =  -2.74627509372349E-07  3.40856102394530E-03
(PID.TID 0000.0001)      cg2d_init_res =   1.28079891186401E-01
(PID.TID 0000.0001)      cg2d_iters(min,last) =      -1      96
(PID.TID 0000.0001)      cg2d_last_res =   8.42966077322412E-08
(PID.TID 0000.0001) // =======================================================
(PID.TID 0000.0001) // Begin MONITOR dynamic field statistics
(PID.TID 0000.0001) // =======================================================
(PID.TID 0000.0001) %MON time_tsnumber                =                    72
(PID.TID 0000.0001) %MON time_secondsf                =   8.6400000000000E+04
(PID.TID 0000.0001) %MON dynstat_eta_max              =   2.5189990440266E-03
(PID.TID 0000.0001) %MON dynstat_eta_min              =  -2.7060415422392E-03
(PID.TID 0000.0001) %MON dynstat_eta_mean             =   4.8243978453345E-12
(PID.TID 0000.0001) %MON dynstat_eta_sd               =   1.3355326293593E-03
(PID.TID 0000.0001) %MON dynstat_eta_del2             =   1.7200430289474E-07
(PID.TID 0000.0001) %MON dynstat_uvel_max             =   1.0213199912657E-03
(PID.TID 0000.0001) %MON dynstat_uvel_min             =  -1.0271218366910E-03
(PID.TID 0000.0001) %MON dynstat_uvel_mean            =  -7.1599931131553E-08
(PID.TID 0000.0001) %MON dynstat_uvel_sd              =   5.7297555388227E-04
(PID.TID 0000.0001) %MON dynstat_uvel_del2            =   1.8879277230572E-07
(PID.TID 0000.0001) %MON dynstat_vvel_max             =   1.5900790780764E-03
(PID.TID 0000.0001) %MON dynstat_vvel_min             =  -1.4165452781170E-03
(PID.TID 0000.0001) %MON dynstat_vvel_mean            =  -3.3842505810621E-08
(PID.TID 0000.0001) %MON dynstat_vvel_sd              =   5.8376287206945E-04
(PID.TID 0000.0001) %MON dynstat_vvel_del2            =   2.6075304826141E-07
(PID.TID 0000.0001) %MON dynstat_wvel_max             =   2.9392044876133E-08
(PID.TID 0000.0001) %MON dynstat_wvel_min             =  -2.2998483612118E-08
(PID.TID 0000.0001) %MON dynstat_wvel_mean            =   5.9664873535641E-23
(PID.TID 0000.0001) %MON dynstat_wvel_sd              =   1.5241575964512E-08
(PID.TID 0000.0001) %MON dynstat_wvel_del2            =   2.0511081969920E-12
(PID.TID 0000.0001) %MON dynstat_theta_max            =   2.0000000000000E+01
(PID.TID 0000.0001) %MON dynstat_theta_min            =   2.0000000000000E+01
(PID.TID 0000.0001) %MON dynstat_theta_mean           =   2.0000000000000E+01
(PID.TID 0000.0001) %MON dynstat_theta_sd             =   3.8014036363165E-13
(PID.TID 0000.0001) %MON dynstat_theta_del2           =   0.0000000000000E+00
(PID.TID 0000.0001) %MON dynstat_salt_max             =   3.0000000000000E+01
(PID.TID 0000.0001) %MON dynstat_salt_min             =   3.0000000000000E+01
(PID.TID 0000.0001) %MON dynstat_salt_mean            =   2.9999999999999E+01
(PID.TID 0000.0001) %MON dynstat_salt_sd              =   5.5777604757167E-13
(PID.TID 0000.0001) %MON dynstat_salt_del2            =   0.0000000000000E+00
(PID.TID 0000.0001) %MON trAdv_CFL_u_max              =   6.0772364331829E-05
(PID.TID 0000.0001) %MON trAdv_CFL_v_max              =   9.4014079534315E-05
(PID.TID 0000.0001) %MON trAdv_CFL_w_max              =   7.8338525297614E-09
(PID.TID 0000.0001) %MON advcfl_uvel_max              =   6.1627310201461E-05
(PID.TID 0000.0001) %MON advcfl_vvel_max              =   9.5404744684587E-05
(PID.TID 0000.0001) %MON advcfl_wvel_max              =   1.4108181540544E-08
(PID.TID 0000.0001) %MON advcfl_W_hf_max              =   0.0000000000000E+00
(PID.TID 0000.0001) %MON pe_b_mean                    =   1.8286571970717E-09
(PID.TID 0000.0001) %MON ke_max                       =   1.2629749833195E-06
(PID.TID 0000.0001) %MON ke_mean                      =   3.2838831284045E-07
(PID.TID 0000.0001) %MON ke_vol                       =   6.8893493896486E+15
(PID.TID 0000.0001) %MON vort_r_min                   =  -5.2622561977435E-09
(PID.TID 0000.0001) %MON vort_r_max                   =   7.7958194542077E-08
(PID.TID 0000.0001) %MON vort_a_mean                  =   1.0600000000000E-04
(PID.TID 0000.0001) %MON vort_a_sd                    =   3.5177724802873E-06
(PID.TID 0000.0001) %MON vort_p_mean                  =   1.1652272308690E-04
(PID.TID 0000.0001) %MON vort_p_sd                    =   4.1521991856153E-05
(PID.TID 0000.0001) %MON surfExpan_theta_mean         =   1.0964463904707E-21
(PID.TID 0000.0001) %MON surfExpan_salt_mean          =   1.5834050120450E-21
(PID.TID 0000.0001) // =======================================================
(PID.TID 0000.0001) // End MONITOR dynamic field statistics
(PID.TID 0000.0001) // =======================================================
 cg2d: Sum(rhs),rhsMax =  -2.79342937198335E-07  3.45587586114952E-03
 cg2d: Sum(rhs),rhsMax =  -2.83986665794433E-07  3.50321283446196E-03
 cg2d: Sum(rhs),rhsMax =  -2.88561646348551E-07  3.55057196602195E-03
 cg2d: Sum(rhs),rhsMax =  -2.93069529970491E-07  3.59795327761269E-03
 cg2d: Sum(rhs),rhsMax =  -2.97512945592049E-07  3.64535679068883E-03
 cg2d: Sum(rhs),rhsMax =  -3.01893772591821E-07  3.69278252638889E-03
 cg2d: Sum(rhs),rhsMax =  -3.06214198581012E-07  3.74023050553593E-03
 cg2d: Sum(rhs),rhsMax =  -3.10476341386368E-07  3.78770074862903E-03
 cg2d: Sum(rhs),rhsMax =  -3.14681836671715E-07  3.83519327583032E-03
 cg2d: Sum(rhs),rhsMax =  -3.18832722050189E-07  3.88270810695338E-03
 cg2d: Sum(rhs),rhsMax =  -3.25264624866095E-07  3.93036484343854E-03
 cg2d: Sum(rhs),rhsMax =  -3.31596368675913E-07  3.97818410258886E-03
 cg2d: Sum(rhs),rhsMax =  -3.37842600221794E-07  4.02602517253859E-03
 cg2d: Sum(rhs),rhsMax =  -3.44006374067285E-07  4.07388806784209E-03
 cg2d: Sum(rhs),rhsMax =  -3.50090717929352E-07  4.12177280318792E-03
 cg2d: Sum(rhs),rhsMax =  -3.56098010724504E-07  4.16967939293939E-03
 cg2d: Sum(rhs),rhsMax =  -3.62031321518574E-07  4.21760785106236E-03
 cg2d: Sum(rhs),rhsMax =  -3.67892413470627E-07  4.26555819115688E-03
 cg2d: Sum(rhs),rhsMax =  -3.73684300326166E-07  4.31353042647771E-03
 cg2d: Sum(rhs),rhsMax =  -3.79409004831743E-07  4.36152456993929E-03
 cg2d: Sum(rhs),rhsMax =  -3.85068574842301E-07  4.40954063411473E-03
 cg2d: Sum(rhs),rhsMax =  -3.90665500189097E-07  4.45757863123232E-03
 cg2d: Sum(rhs),rhsMax =  -3.96201652565903E-07  4.50563857317445E-03
 cg2d: Sum(rhs),rhsMax =  -4.01679526820797E-07  4.55372047147632E-03
 cg2d: Sum(rhs),rhsMax =  -4.07099926463816E-07  4.60182433732778E-03
 cg2d: Sum(rhs),rhsMax =  -4.12465720245336E-07  4.64995018157367E-03
 cg2d: Sum(rhs),rhsMax =  -4.17778342268194E-07  4.69809801471590E-03
 cg2d: Sum(rhs),rhsMax =  -4.23039512264384E-07  4.74626784691415E-03
 cg2d: Sum(rhs),rhsMax =  -4.28250818269166E-07  4.79445968798764E-03
 cg2d: Sum(rhs),rhsMax =  -4.33414080649314E-07  4.84267354741494E-03
 cg2d: Sum(rhs),rhsMax =  -4.38530808447718E-07  4.89090943433485E-03
 cg2d: Sum(rhs),rhsMax =  -4.43602448180896E-07  4.93916735754607E-03
 cg2d: Sum(rhs),rhsMax =  -4.48630553737811E-07  4.98744732550797E-03
 cg2d: Sum(rhs),rhsMax =  -4.53616351842046E-07  5.03574934634037E-03
 cg2d: Sum(rhs),rhsMax =  -4.58561354280823E-07  5.08407342782482E-03
 cg2d: Sum(rhs),rhsMax =  -4.63466742806756E-07  5.13241957740429E-03
 cg2d: Sum(rhs),rhsMax =  -4.68333904199425E-07  5.18078780218431E-03
 cg2d: Sum(rhs),rhsMax =  -4.73164183398614E-07  5.22917810893372E-03
 cg2d: Sum(rhs),rhsMax =  -4.77958761778766E-07  5.27759050408496E-03
 cg2d: Sum(rhs),rhsMax =  -4.82718595089249E-07  5.32602499373508E-03
 cg2d: Sum(rhs),rhsMax =  -4.87445015405139E-07  5.37448158364563E-03
 cg2d: Sum(rhs),rhsMax =  -4.92139108137710E-07  5.42296027924431E-03
 cg2d: Sum(rhs),rhsMax =  -4.96801837623212E-07  5.47146108562409E-03
 cg2d: Sum(rhs),rhsMax =  -5.01433879845220E-07  5.51998400754474E-03
 cg2d: Sum(rhs),rhsMax =  -5.06036813051683E-07  5.56852904943294E-03
 cg2d: Sum(rhs),rhsMax =  -5.10611320782631E-07  5.61709621538286E-03
 cg2d: Sum(rhs),rhsMax =  -5.15158490650702E-07  5.66568550915674E-03
 cg2d: Sum(rhs),rhsMax =  -5.19679184960917E-07  5.71429693418520E-03
 cg2d: Sum(rhs),rhsMax =  -5.24174059710232E-07  5.76293049356823E-03
 cg2d: Sum(rhs),rhsMax =  -5.28644245421407E-07  5.81158619007529E-03
 cg2d: Sum(rhs),rhsMax =  -5.33090457284502E-07  5.86026402614618E-03
 cg2d: Sum(rhs),rhsMax =  -5.37513608229838E-07  5.90896400389147E-03
 cg2d: Sum(rhs),rhsMax =  -5.41914258231357E-07  5.95768612509311E-03
 cg2d: Sum(rhs),rhsMax =  -5.46293330933902E-07  6.00643039120446E-03
 cg2d: Sum(rhs),rhsMax =  -5.50651710617099E-07  6.05519680335169E-03
 cg2d: Sum(rhs),rhsMax =  -5.58676408996418E-07  6.10398536228723E-03
 cg2d: Sum(rhs),rhsMax =  -5.66650960590141E-07  6.15279606785433E-03
 cg2d: Sum(rhs),rhsMax =  -5.74575843338004E-07  6.20162892178588E-03
 cg2d: Sum(rhs),rhsMax =  -5.82452714187158E-07  6.25048392284922E-03
 cg2d: Sum(rhs),rhsMax =  -5.90283119051389E-07  6.29936107058032E-03
 cg2d: Sum(rhs),rhsMax =  -5.98068336665628E-07  6.34826036424402E-03
 cg2d: Sum(rhs),rhsMax =  -6.05809994819791E-07  6.39718180271584E-03
 cg2d: Sum(rhs),rhsMax =  -6.13509312097815E-07  6.44612538451430E-03
 cg2d: Sum(rhs),rhsMax =  -6.21167309885042E-07  6.49509110782959E-03
 cg2d: Sum(rhs),rhsMax =  -6.28785566739854E-07  6.54407897053384E-03
 cg2d: Sum(rhs),rhsMax =  -6.36364824894509E-07  6.59308897018230E-03
 cg2d: Sum(rhs),rhsMax =  -6.43906631962255E-07  6.64212110401168E-03
 cg2d: Sum(rhs),rhsMax =  -6.51411926393336E-07  6.69117536893851E-03
 cg2d: Sum(rhs),rhsMax =  -6.58881449725661E-07  6.74025176155871E-03
 cg2d: Sum(rhs),rhsMax =  -6.66317298272153E-07  6.78935027814828E-03
 cg2d: Sum(rhs),rhsMax =  -6.73719433032325E-07  6.83847091466245E-03
 cg2d: Sum(rhs),rhsMax =  -6.81089162606757E-07  6.88761366673754E-03
(PID.TID 0000.0001)      cg2d_init_res =   6.05604015467640E-02
(PID.TID 0000.0001)      cg2d_iters(min,last) =      -1      94
(PID.TID 0000.0001)      cg2d_last_res =   9.35437111730017E-08
(PID.TID 0000.0001) // =======================================================
(PID.TID 0000.0001) // Begin MONITOR dynamic field statistics
(PID.TID 0000.0001) // =======================================================
(PID.TID 0000.0001) %MON time_tsnumber                =                   144
(PID.TID 0000.0001) %MON time_secondsf                =   1.7280000000000E+05
(PID.TID 0000.0001) %MON dynstat_eta_max              =   5.0532295313673E-03
(PID.TID 0000.0001) %MON dynstat_eta_min              =  -4.6663157927349E-03
(PID.TID 0000.0001) %MON dynstat_eta_mean             =   2.3865128388802E-11
(PID.TID 0000.0001) %MON dynstat_eta_sd               =   2.6322594448979E-03
(PID.TID 0000.0001) %MON dynstat_eta_del2             =   3.5240179855278E-07
(PID.TID 0000.0001) %MON dynstat_uvel_max             =   2.0563705875193E-03
(PID.TID 0000.0001) %MON dynstat_uvel_min             =  -2.0436794465723E-03
(PID.TID 0000.0001) %MON dynstat_uvel_mean            =  -1.4299817551595E-07
(PID.TID 0000.0001) %MON dynstat_uvel_sd              =   1.1363480101721E-03
(PID.TID 0000.0001) %MON dynstat_uvel_del2            =   6.3657029423323E-07
(PID.TID 0000.0001) %MON dynstat_vvel_max             =   3.3328050253744E-03
(PID.TID 0000.0001) %MON dynstat_vvel_min             =  -2.6529972033976E-03
(PID.TID 0000.0001) %MON dynstat_vvel_mean            =  -2.5014831079541E-08
(PID.TID 0000.0001) %MON dynstat_vvel_sd              =   1.1591173116034E-03
(PID.TID 0000.0001) %MON dynstat_vvel_del2            =   9.2278534690966E-07
(PID.TID 0000.0001) %MON dynstat_wvel_max             =   2.9523491929458E-08
(PID.TID 0000.0001) %MON dynstat_wvel_min             =  -2.2494115857908E-08
(PID.TID 0000.0001) %MON dynstat_wvel_mean            =  -1.9075943984919E-22
(PID.TID 0000.0001) %MON dynstat_wvel_sd              =   1.5165344789223E-08
(PID.TID 0000.0001) %MON dynstat_wvel_del2            =   2.2979027795461E-12
(PID.TID 0000.0001) %MON dynstat_theta_max            =   2.0000000000000E+01
(PID.TID 0000.0001) %MON dynstat_theta_min            =   2.0000000000000E+01
(PID.TID 0000.0001) %MON dynstat_theta_mean           =   2.0000000000000E+01
(PID.TID 0000.0001) %MON dynstat_theta_sd             =   3.8014036363165E-13
(PID.TID 0000.0001) %MON dynstat_theta_del2           =   0.0000000000000E+00
(PID.TID 0000.0001) %MON dynstat_salt_max             =   3.0000000000000E+01
(PID.TID 0000.0001) %MON dynstat_salt_min             =   3.0000000000000E+01
(PID.TID 0000.0001) %MON dynstat_salt_mean            =   2.9999999999999E+01
(PID.TID 0000.0001) %MON dynstat_salt_sd              =   5.5777604757167E-13
(PID.TID 0000.0001) %MON dynstat_salt_del2            =   0.0000000000000E+00
(PID.TID 0000.0001) %MON trAdv_CFL_u_max              =   1.2249734068301E-04
(PID.TID 0000.0001) %MON trAdv_CFL_v_max              =   1.9845882342400E-04
(PID.TID 0000.0001) %MON trAdv_CFL_w_max              =   7.8605891041288E-09
(PID.TID 0000.0001) %MON advcfl_uvel_max              =   1.2338223525116E-04
(PID.TID 0000.0001) %MON advcfl_vvel_max              =   1.9996830152247E-04
(PID.TID 0000.0001) %MON advcfl_wvel_max              =   1.4171276126140E-08
(PID.TID 0000.0001) %MON advcfl_W_hf_max              =   0.0000000000000E+00
(PID.TID 0000.0001) %MON pe_b_mean                    =   7.1036356618433E-09
(PID.TID 0000.0001) %MON ke_max                       =   5.5517669714079E-06
(PID.TID 0000.0001) %MON ke_mean                      =   1.2931943532927E-06
(PID.TID 0000.0001) %MON ke_vol                       =   6.8893493896486E+15
(PID.TID 0000.0001) %MON vort_r_min                   =  -1.1753358213296E-08
(PID.TID 0000.0001) %MON vort_r_max                   =   1.5330347223486E-07
(PID.TID 0000.0001) %MON vort_a_mean                  =   1.0600000000000E-04
(PID.TID 0000.0001) %MON vort_a_sd                    =   3.5178190960644E-06
(PID.TID 0000.0001) %MON vort_p_mean                  =   1.1652272308690E-04
(PID.TID 0000.0001) %MON vort_p_sd                    =   4.1539824730146E-05
(PID.TID 0000.0001) %MON surfExpan_theta_mean         =  -3.9910395975716E-21
(PID.TID 0000.0001) %MON surfExpan_salt_mean          =  -5.9969806898152E-21
(PID.TID 0000.0001) // =======================================================
(PID.TID 0000.0001) // End MONITOR dynamic field statistics
(PID.TID 0000.0001) // =======================================================
 cg2d: Sum(rhs),rhsMax =  -6.88427953858973E-07  6.93677852969238E-03
 cg2d: Sum(rhs),rhsMax =  -6.95736140594871E-07  6.98596549852789E-03
 cg2d: Sum(rhs),rhsMax =  -7.03015138359218E-07  7.03517456792813E-03
 cg2d: Sum(rhs),rhsMax =  -7.10265563324056E-07  7.08440573226140E-03
 cg2d: Sum(rhs),rhsMax =  -7.17488555036609E-07  7.13365898557891E-03
 cg2d: Sum(rhs),rhsMax =  -7.24684657863080E-07  7.18293432161738E-03
 cg2d: Sum(rhs),rhsMax =  -7.31854849809338E-07  7.23223173379791E-03
 cg2d: Sum(rhs),rhsMax =  -7.39000193809847E-07  7.28155121522719E-03
 cg2d: Sum(rhs),rhsMax =  -7.46121191642045E-07  7.33089275869789E-03
 cg2d: Sum(rhs),rhsMax =  -7.53218752161389E-07  7.38025635668927E-03
 cg2d: Sum(rhs),rhsMax =  -7.60293568933743E-07  7.42964200136758E-03
 cg2d: Sum(rhs),rhsMax =  -7.67346771248477E-07  7.47904968458688E-03
 cg2d: Sum(rhs),rhsMax =  -7.74378520012470E-07  7.52847939788928E-03
 cg2d: Sum(rhs),rhsMax =  -7.81389990734196E-07  7.57793113250553E-03
 cg2d: Sum(rhs),rhsMax =  -7.88381588135920E-07  7.62740487935557E-03
 cg2d: Sum(rhs),rhsMax =  -7.95354189647712E-07  7.67690062904916E-03
 cg2d: Sum(rhs),rhsMax =  -8.02308321605494E-07  7.72641837188617E-03
 cg2d: Sum(rhs),rhsMax =  -8.09244729498004E-07  7.77595809785706E-03
 cg2d: Sum(rhs),rhsMax =  -8.16164169468656E-07  7.82551979664366E-03
 cg2d: Sum(rhs),rhsMax =  -8.23067020538915E-07  7.87510345761954E-03
 cg2d: Sum(rhs),rhsMax =  -8.29953811138512E-07  7.92470906985052E-03
 cg2d: Sum(rhs),rhsMax =  -8.36825467713867E-07  7.97433662209526E-03
 cg2d: Sum(rhs),rhsMax =  -8.43682382147687E-07  8.02398610280583E-03
 cg2d: Sum(rhs),rhsMax =  -8.50525354902099E-07  8.07365750012803E-03
 cg2d: Sum(rhs),rhsMax =  -8.57354488490586E-07  8.12335080190172E-03
 cg2d: Sum(rhs),rhsMax =  -8.64170878737969E-07  8.17306599566216E-03
 cg2d: Sum(rhs),rhsMax =  -8.70974192169680E-07  8.22280306863964E-03
 cg2d: Sum(rhs),rhsMax =  -8.77765980176679E-07  8.27256200776042E-03
 cg2d: Sum(rhs),rhsMax =  -8.84546118488580E-07  8.32234279964684E-03
 cg2d: Sum(rhs),rhsMax =  -8.91315331499887E-07  8.37214543061880E-03
 cg2d: Sum(rhs),rhsMax =  -8.98074094094620E-07  8.42196988669310E-03
 cg2d: Sum(rhs),rhsMax =  -9.04822756298343E-07  8.47181615358496E-03
 cg2d: Sum(rhs),rhsMax =  -9.11562041070943E-07  8.52168421670766E-03
 cg2d: Sum(rhs),rhsMax =  -9.18292194356310E-07  8.57157406117324E-03
 cg2d: Sum(rhs),rhsMax =  -9.25013583131726E-07  8.62148567179408E-03
 cg2d: Sum(rhs),rhsMax =  -9.31726863131338E-07  8.67141903308184E-03
 cg2d: Sum(rhs),rhsMax =  -9.38432221221294E-07  8.72137412924883E-03
 cg2d: Sum(rhs),rhsMax =  -9.45130206457187E-07  8.77135094420826E-03
 cg2d: Sum(rhs),rhsMax =  -9.51821421716140E-07  8.82134946157538E-03
 cg2d: Sum(rhs),rhsMax =  -9.58506050884045E-07  8.87136966466678E-03
 cg2d: Sum(rhs),rhsMax =  -9.65184488024157E-07  8.92141153650240E-03
 cg2d: Sum(rhs),rhsMax =  -9.71857054232056E-07  8.97147505980442E-03
 cg2d: Sum(rhs),rhsMax =  -9.78524262177510E-07  9.02156021699938E-03
 cg2d: Sum(rhs),rhsMax =  -9.85186728412468E-07  9.07166699021756E-03
 cg2d: Sum(rhs),rhsMax =  -9.91844085782706E-07  9.12179536129318E-03
 cg2d: Sum(rhs),rhsMax =  -9.98497396067360E-07  9.17194531176715E-03
 cg2d: Sum(rhs),rhsMax =  -1.00514688928730E-06  9.22211682288442E-03
 cg2d: Sum(rhs),rhsMax =  -1.01179253805643E-06  9.27230987559664E-03
 cg2d: Sum(rhs),rhsMax =  -1.01843501310213E-06  9.32252445056266E-03
 cg2d: Sum(rhs),rhsMax =  -1.02507471442734E-06  9.37276052814768E-03
 cg2d: Sum(rhs),rhsMax =  -1.03171185127267E-06  9.42301808842501E-03
 cg2d: Sum(rhs),rhsMax =  -1.03834658466730E-06  9.47329711117596E-03
 cg2d: Sum(rhs),rhsMax =  -1.04497949703769E-06  9.52359757589076E-03
 cg2d: Sum(rhs),rhsMax =  -1.05161105203033E-06  9.57391946176793E-03
 cg2d: Sum(rhs),rhsMax =  -1.05824063073925E-06  9.62426274771756E-03
 cg2d: Sum(rhs),rhsMax =  -1.06486922698407E-06  9.67462741235750E-03
 cg2d: Sum(rhs),rhsMax =  -1.07149737092402E-06  9.72501343401850E-03
 cg2d: Sum(rhs),rhsMax =  -1.07812474898009E-06  9.77542079074129E-03
 cg2d: Sum(rhs),rhsMax =  -1.08475221638135E-06  9.82584946027861E-03
 cg2d: Sum(rhs),rhsMax =  -1.09137936364287E-06  9.87629942009549E-03
 cg2d: Sum(rhs),rhsMax =  -1.09800731199275E-06  9.92677064737004E-03
 cg2d: Sum(rhs),rhsMax =  -1.10463561815363E-06  9.97726311899282E-03
 cg2d: Sum(rhs),rhsMax =  -1.11126461620550E-06  1.00277768115688E-02
 cg2d: Sum(rhs),rhsMax =  -1.11789501338125E-06  1.00783117014174E-02
 cg2d: Sum(rhs),rhsMax =  -1.12452654746353E-06  1.01288677645720E-02
 cg2d: Sum(rhs),rhsMax =  -1.13115974504502E-06  1.01794449767818E-02
 cg2d: Sum(rhs),rhsMax =  -1.13779539279157E-06  1.02300433135117E-02
 cg2d: Sum(rhs),rhsMax =  -1.14443242330356E-06  1.02806627499432E-02
 cg2d: Sum(rhs),rhsMax =  -1.15107217580138E-06  1.03313032609740E-02
 cg2d: Sum(rhs),rhsMax =  -1.15771439444107E-06  1.03819648212196E-02
 cg2d: Sum(rhs),rhsMax =  -1.16435944385110E-06  1.04326474050131E-02
 cg2d: Sum(rhs),rhsMax =  -1.17698522492798E-06  1.04833509296776E-02
(PID.TID 0000.0001)      cg2d_init_res =   3.86962073698249E-02
(PID.TID 0000.0001)      cg2d_iters(min,last) =      -1      93
(PID.TID 0000.0001)      cg2d_last_res =   9.96135107312837E-08
(PID.TID 0000.0001) // =======================================================
(PID.TID 0000.0001) // Begin MONITOR dynamic field statistics
(PID.TID 0000.0001) // =======================================================
(PID.TID 0000.0001) %MON time_tsnumber                =                   216
(PID.TID 0000.0001) %MON time_secondsf                =   2.5920000000000E+05
(PID.TID 0000.0001) %MON dynstat_eta_max              =   7.5869589007045E-03
(PID.TID 0000.0001) %MON dynstat_eta_min              =  -6.5701045978972E-03
(PID.TID 0000.0001) %MON dynstat_eta_mean             =   6.2624010563691E-11
(PID.TID 0000.0001) %MON dynstat_eta_sd               =   3.9259216807080E-03
(PID.TID 0000.0001) %MON dynstat_eta_del2             =   5.5289552592800E-07
(PID.TID 0000.0001) %MON dynstat_uvel_max             =   3.1214062294296E-03
(PID.TID 0000.0001) %MON dynstat_uvel_min             =  -3.0327136063898E-03
(PID.TID 0000.0001) %MON dynstat_uvel_mean            =  -2.0972971405497E-07
(PID.TID 0000.0001) %MON dynstat_uvel_sd              =   1.6887971251997E-03
(PID.TID 0000.0001) %MON dynstat_uvel_del2            =   1.2452833794653E-06
(PID.TID 0000.0001) %MON dynstat_vvel_max             =   5.2099553493247E-03
(PID.TID 0000.0001) %MON dynstat_vvel_min             =  -3.7022506300463E-03
(PID.TID 0000.0001) %MON dynstat_vvel_mean            =  -7.7458453040229E-09
(PID.TID 0000.0001) %MON dynstat_vvel_sd              =   1.7285410893870E-03
(PID.TID 0000.0001) %MON dynstat_vvel_del2            =   1.8444964241649E-06
(PID.TID 0000.0001) %MON dynstat_wvel_max             =   2.9773944492754E-08
(PID.TID 0000.0001) %MON dynstat_wvel_min             =  -2.1903472407071E-08
(PID.TID 0000.0001) %MON dynstat_wvel_mean            =  -1.0194728222106E-22
(PID.TID 0000.0001) %MON dynstat_wvel_sd              =   1.5080407573650E-08
(PID.TID 0000.0001) %MON dynstat_wvel_del2            =   2.6011704694432E-12
(PID.TID 0000.0001) %MON dynstat_theta_max            =   2.0000000000000E+01
(PID.TID 0000.0001) %MON dynstat_theta_min            =   2.0000000000000E+01
(PID.TID 0000.0001) %MON dynstat_theta_mean           =   2.0000000000000E+01
(PID.TID 0000.0001) %MON dynstat_theta_sd             =   3.8014036363165E-13
(PID.TID 0000.0001) %MON dynstat_theta_del2           =   0.0000000000000E+00
(PID.TID 0000.0001) %MON dynstat_salt_max             =   3.0000000000000E+01
(PID.TID 0000.0001) %MON dynstat_salt_min             =   3.0000000000000E+01
(PID.TID 0000.0001) %MON dynstat_salt_mean            =   2.9999999999999E+01
(PID.TID 0000.0001) %MON dynstat_salt_sd              =   5.5777604757167E-13
(PID.TID 0000.0001) %MON dynstat_salt_del2            =   0.0000000000000E+00
(PID.TID 0000.0001) %MON trAdv_CFL_u_max              =   1.8635642771566E-04
(PID.TID 0000.0001) %MON trAdv_CFL_v_max              =   3.1098149752452E-04
(PID.TID 0000.0001) %MON trAdv_CFL_w_max              =   7.9063760524513E-09
(PID.TID 0000.0001) %MON advcfl_uvel_max              =   1.8728437376578E-04
(PID.TID 0000.0001) %MON advcfl_vvel_max              =   3.1259732095948E-04
(PID.TID 0000.0001) %MON advcfl_wvel_max              =   1.4291493356522E-08
(PID.TID 0000.0001) %MON advcfl_W_hf_max              =   0.0000000000000E+00
(PID.TID 0000.0001) %MON pe_b_mean                    =   1.5801799845260E-08
(PID.TID 0000.0001) %MON ke_max                       =   1.3567122931487E-05
(PID.TID 0000.0001) %MON ke_mean                      =   2.8662512877529E-06
(PID.TID 0000.0001) %MON ke_vol                       =   6.8893493896486E+15
(PID.TID 0000.0001) %MON vort_r_min                   =  -1.9467611949724E-08
(PID.TID 0000.0001) %MON vort_r_max                   =   2.2709453300847E-07
(PID.TID 0000.0001) %MON vort_a_mean                  =   1.0600000000000E-04
(PID.TID 0000.0001) %MON vort_a_sd                    =   3.5178875102192E-06
(PID.TID 0000.0001) %MON vort_p_mean                  =   1.1652272308690E-04
(PID.TID 0000.0001) %MON vort_p_sd                    =   4.1555153038667E-05
(PID.TID 0000.0001) %MON surfExpan_theta_mean         =  -1.9629927313266E-21
(PID.TID 0000.0001) %MON surfExpan_salt_mean          =  -3.0051220771081E-21
(PID.TID 0000.0001) // =======================================================
(PID.TID 0000.0001) // End MONITOR dynamic field statistics
(PID.TID 0000.0001) // =======================================================
 cg2d: Sum(rhs),rhsMax =  -1.18958930839588E-06  1.05340754818998E-02
 cg2d: Sum(rhs),rhsMax =  -1.20217358681382E-06  1.05848209798650E-02
 cg2d: Sum(rhs),rhsMax =  -1.21473837613739E-06  1.06355873957367E-02
 cg2d: Sum(rhs),rhsMax =  -1.22728425544505E-06  1.06863747024882E-02
 cg2d: Sum(rhs),rhsMax =  -1.23981189492292E-06  1.07371828728667E-02
 cg2d: Sum(rhs),rhsMax =  -1.25232140297388E-06  1.07880118792878E-02
 cg2d: Sum(rhs),rhsMax =  -1.26481401633086E-06  1.08388616938442E-02
 cg2d: Sum(rhs),rhsMax =  -1.27728990458736E-06  1.08897322883396E-02
 cg2d: Sum(rhs),rhsMax =  -1.28975002610179E-06  1.09406236343036E-02
 cg2d: Sum(rhs),rhsMax =  -1.30219453254796E-06  1.09915357029965E-02
 cg2d: Sum(rhs),rhsMax =  -1.31462411883873E-06  1.10424684654052E-02
 cg2d: Sum(rhs),rhsMax =  -1.32703938355086E-06  1.10934218922449E-02
 cg2d: Sum(rhs),rhsMax =  -1.33944078496359E-06  1.11443959539526E-02
 cg2d: Sum(rhs),rhsMax =  -1.35182898534925E-06  1.11953906206909E-02
 cg2d: Sum(rhs),rhsMax =  -1.36420448609495E-06  1.12464058623465E-02
 cg2d: Sum(rhs),rhsMax =  -1.37656751887996E-06  1.12974416485318E-02
 cg2d: Sum(rhs),rhsMax =  -1.38891877549813E-06  1.13484979485864E-02
 cg2d: Sum(rhs),rhsMax =  -1.40125902955285E-06  1.13995747315780E-02
 cg2d: Sum(rhs),rhsMax =  -1.41358798349742E-06  1.14506719663018E-02
 cg2d: Sum(rhs),rhsMax =  -1.42590695858744E-06  1.15017896212828E-02
 cg2d: Sum(rhs),rhsMax =  -1.43821594699584E-06  1.15529276647747E-02
 cg2d: Sum(rhs),rhsMax =  -1.45051571907515E-06  1.16040860647603E-02
 cg2d: Sum(rhs),rhsMax =  -1.46280655989248E-06  1.16552647889521E-02
 cg2d: Sum(rhs),rhsMax =  -1.47508904170535E-06  1.17064638047935E-02
 cg2d: Sum(rhs),rhsMax =  -1.48736338791144E-06  1.17576830794582E-02
 cg2d: Sum(rhs),rhsMax =  -1.49963044787649E-06  1.18089225798521E-02
 cg2d: Sum(rhs),rhsMax =  -1.51188992684320E-06  1.18601822726126E-02
 cg2d: Sum(rhs),rhsMax =  -1.52414264840972E-06  1.19114621241096E-02
 cg2d: Sum(rhs),rhsMax =  -1.53638947648915E-06  1.19627621004462E-02
 cg2d: Sum(rhs),rhsMax =  -1.54863007646028E-06  1.20140821674588E-02
 cg2d: Sum(rhs),rhsMax =  -1.56086529684921E-06  1.20654222907180E-02
 cg2d: Sum(rhs),rhsMax =  -1.57309543978579E-06  1.21167824355291E-02
 cg2d: Sum(rhs),rhsMax =  -1.58532095067762E-06  1.21681625669322E-02
 cg2d: Sum(rhs),rhsMax =  -1.59754205191973E-06  1.22195626497024E-02
 cg2d: Sum(rhs),rhsMax =  -1.60975922513726E-06  1.22709826483521E-02
 cg2d: Sum(rhs),rhsMax =  -1.62197300691141E-06  1.23224225271289E-02
 cg2d: Sum(rhs),rhsMax =  -1.63418339511889E-06  1.23738822500182E-02
 cg2d: Sum(rhs),rhsMax =  -1.64639119360627E-06  1.24253617807428E-02
 cg2d: Sum(rhs),rhsMax =  -1.65859644175523E-06  1.24768610827635E-02
 cg2d: Sum(rhs),rhsMax =  -1.67079959873320E-06  1.25283801192797E-02
 cg2d: Sum(rhs),rhsMax =  -1.68300115776024E-06  1.25799188532295E-02
 cg2d: Sum(rhs),rhsMax =  -1.69520133326898E-06  1.26314772472914E-02
 cg2d: Sum(rhs),rhsMax =  -1.70740056427282E-06  1.26830552638834E-02
 cg2d: Sum(rhs),rhsMax =  -1.71959902906318E-06  1.27346528651640E-02
 cg2d: Sum(rhs),rhsMax =  -1.73179698927453E-06  1.27862700130329E-02
 cg2d: Sum(rhs),rhsMax =  -1.74399527558960E-06  1.28379066691316E-02
 cg2d: Sum(rhs),rhsMax =  -1.75619380633416E-06  1.28895627948436E-02
 cg2d: Sum(rhs),rhsMax =  -1.76839290239039E-06  1.29412383512945E-02
 cg2d: Sum(rhs),rhsMax =  -1.78059298823127E-06  1.29929332993542E-02
 cg2d: Sum(rhs),rhsMax =  -1.79279410470606E-06  1.30446475996352E-02
 cg2d: Sum(rhs),rhsMax =  -1.80499682044671E-06  1.30963812124941E-02
 cg2d: Sum(rhs),rhsMax =  -1.81720170240249E-06  1.31481340980329E-02
 cg2d: Sum(rhs),rhsMax =  -1.82940864792286E-06  1.31999062160983E-02
 cg2d: Sum(rhs),rhsMax =  -1.84161806557337E-06  1.32516975262825E-02
 cg2d: Sum(rhs),rhsMax =  -1.85383023933172E-06  1.33035079879238E-02
 cg2d: Sum(rhs),rhsMax =  -1.86604566730642E-06  1.33553375601077E-02
 cg2d: Sum(rhs),rhsMax =  -1.87826415662395E-06  1.34071862016660E-02
 cg2d: Sum(rhs),rhsMax =  -1.89048647811219E-06  1.34590538711798E-02
 cg2d: Sum(rhs),rhsMax =  -1.90271286064012E-06  1.35109405269763E-02
 cg2d: Sum(rhs),rhsMax =  -1.91494334021020E-06  1.35628461271328E-02
 cg2d: Sum(rhs),rhsMax =  -1.92717848760890E-06  1.36147706294750E-02
 cg2d: Sum(rhs),rhsMax =  -1.93941823755511E-06  1.36667139915795E-02
 cg2d: Sum(rhs),rhsMax =  -1.95166284586851E-06  1.37186761707714E-02
 cg2d: Sum(rhs),rhsMax =  -1.96391288661765E-06  1.37706571241281E-02
 cg2d: Sum(rhs),rhsMax =  -1.97616835283937E-06  1.38226568084771E-02
 cg2d: Sum(rhs),rhsMax =  -1.98842982457315E-06  1.38746751803984E-02
 cg2d: Sum(rhs),rhsMax =  -2.00069714883372E-06  1.39267121962240E-02
 cg2d: Sum(rhs),rhsMax =  -2.01297106993542E-06  1.39787678120384E-02
 cg2d: Sum(rhs),rhsMax =  -2.02525123244382E-06  1.40308419836794E-02
 cg2d: Sum(rhs),rhsMax =  -2.03753837959078E-06  1.40829346667394E-02
 cg2d: Sum(rhs),rhsMax =  -2.04983267933570E-06  1.41350458165638E-02
 cg2d: Sum(rhs),rhsMax =  -2.06213423889490E-06  1.41871753882536E-02
(PID.TID 0000.0001)      cg2d_init_res =   2.81932319324770E-02
(PID.TID 0000.0001)      cg2d_iters(min,last) =      -1      93
(PID.TID 0000.0001)      cg2d_last_res =   8.69458727509189E-08
(PID.TID 0000.0001) // =======================================================
(PID.TID 0000.0001) // Begin MONITOR dynamic field statistics
(PID.TID 0000.0001) // =======================================================
(PID.TID 0000.0001) %MON time_tsnumber                =                   288
(PID.TID 0000.0001) %MON time_secondsf                =   3.4560000000000E+05
(PID.TID 0000.0001) %MON dynstat_eta_max              =   1.0117897642767E-02
(PID.TID 0000.0001) %MON dynstat_eta_min              =  -8.4105603827341E-03
(PID.TID 0000.0001) %MON dynstat_eta_mean             =   1.4761766565932E-10
(PID.TID 0000.0001) %MON dynstat_eta_sd               =   5.2071552918047E-03
(PID.TID 0000.0001) %MON dynstat_eta_del2             =   7.7685855013055E-07
(PID.TID 0000.0001) %MON dynstat_uvel_max             =   4.2302266990589E-03
(PID.TID 0000.0001) %MON dynstat_uvel_min             =  -3.9838866501658E-03
(PID.TID 0000.0001) %MON dynstat_uvel_mean            =  -2.7047184859924E-07
(PID.TID 0000.0001) %MON dynstat_uvel_sd              =   2.2289085967423E-03
(PID.TID 0000.0001) %MON dynstat_uvel_del2            =   1.9451051818674E-06
(PID.TID 0000.0001) %MON dynstat_vvel_max             =   7.2050175683724E-03
(PID.TID 0000.0001) %MON dynstat_vvel_min             =  -4.5643819910707E-03
(PID.TID 0000.0001) %MON dynstat_vvel_mean            =   1.7214459939211E-08
(PID.TID 0000.0001) %MON dynstat_vvel_sd              =   2.2934629878477E-03
(PID.TID 0000.0001) %MON dynstat_vvel_del2            =   2.9345048411426E-06
(PID.TID 0000.0001) %MON dynstat_wvel_max             =   3.0132162493537E-08
(PID.TID 0000.0001) %MON dynstat_wvel_min             =  -2.1227455158678E-08
(PID.TID 0000.0001) %MON dynstat_wvel_mean            =   3.8592891845231E-23
(PID.TID 0000.0001) %MON dynstat_wvel_sd              =   1.4984977169646E-08
(PID.TID 0000.0001) %MON dynstat_wvel_del2            =   2.8963230183191E-12
(PID.TID 0000.0001) %MON dynstat_theta_max            =   2.0000000000000E+01
(PID.TID 0000.0001) %MON dynstat_theta_min            =   2.0000000000000E+01
(PID.TID 0000.0001) %MON dynstat_theta_mean           =   2.0000000000000E+01
(PID.TID 0000.0001) %MON dynstat_theta_sd             =   3.8014036363165E-13
(PID.TID 0000.0001) %MON dynstat_theta_del2           =   0.0000000000000E+00
(PID.TID 0000.0001) %MON dynstat_salt_max             =   3.0000000000000E+01
(PID.TID 0000.0001) %MON dynstat_salt_min             =   3.0000000000000E+01
(PID.TID 0000.0001) %MON dynstat_salt_mean            =   2.9999999999999E+01
(PID.TID 0000.0001) %MON dynstat_salt_sd              =   5.5777604757167E-13
(PID.TID 0000.0001) %MON dynstat_salt_del2            =   0.0000000000000E+00
(PID.TID 0000.0001) %MON trAdv_CFL_u_max              =   2.5282698361546E-04
(PID.TID 0000.0001) %MON trAdv_CFL_v_max              =   4.3059563989509E-04
(PID.TID 0000.0001) %MON trAdv_CFL_w_max              =   7.9691589981496E-09
(PID.TID 0000.0001) %MON advcfl_uvel_max              =   2.5381360194354E-04
(PID.TID 0000.0001) %MON advcfl_vvel_max              =   4.3230105410234E-04
(PID.TID 0000.0001) %MON advcfl_wvel_max              =   1.4463437996898E-08
(PID.TID 0000.0001) %MON advcfl_W_hf_max              =   0.0000000000000E+00
(PID.TID 0000.0001) %MON pe_b_mean                    =   2.7798691438769E-08
(PID.TID 0000.0001) %MON ke_max                       =   2.5926847892882E-05
(PID.TID 0000.0001) %MON ke_mean                      =   5.0199636029338E-06
(PID.TID 0000.0001) %MON ke_vol                       =   6.8893493896486E+15
(PID.TID 0000.0001) %MON vort_r_min                   =  -2.8353639481850E-08
(PID.TID 0000.0001) %MON vort_r_max                   =   3.0002179045741E-07
(PID.TID 0000.0001) %MON vort_a_mean                  =   1.0600000000000E-04
(PID.TID 0000.0001) %MON vort_a_sd                    =   3.5179745965154E-06
(PID.TID 0000.0001) %MON vort_p_mean                  =   1.1652272308690E-04
(PID.TID 0000.0001) %MON vort_p_sd                    =   4.1568507504806E-05
(PID.TID 0000.0001) %MON surfExpan_theta_mean         =   7.9264989633682E-22
(PID.TID 0000.0001) %MON surfExpan_salt_mean          =   1.2031856992204E-21
(PID.TID 0000.0001) // =======================================================
(PID.TID 0000.0001) // End MONITOR dynamic field statistics
(PID.TID 0000.0001) // =======================================================
 cg2d: Sum(rhs),rhsMax =  -2.07444329409709E-06  1.42393233366649E-02
 cg2d: Sum(rhs),rhsMax =  -2.08676020656273E-06  1.42914896164098E-02
 cg2d: Sum(rhs),rhsMax =  -2.09908514708229E-06  1.43436741818562E-02
 cg2d: Sum(rhs),rhsMax =  -2.11141834065981E-06  1.43958769871292E-02
 cg2d: Sum(rhs),rhsMax =  -2.12375982400898E-06  1.44480979861119E-02
 cg2d: Sum(rhs),rhsMax =  -2.13611025006236E-06  1.45003371324436E-02
 cg2d: Sum(rhs),rhsMax =  -2.14846947565669E-06  1.45525943795233E-02
 cg2d: Sum(rhs),rhsMax =  -2.16083790626626E-06  1.46048696805084E-02
 cg2d: Sum(rhs),rhsMax =  -2.17321584198779E-06  1.46571629883159E-02
 cg2d: Sum(rhs),rhsMax =  -2.18560328858752E-06  1.47094742556223E-02
 cg2d: Sum(rhs),rhsMax =  -2.19800050934790E-06  1.47618034348650E-02
 cg2d: Sum(rhs),rhsMax =  -2.21040753191001E-06  1.48141504782418E-02
 cg2d: Sum(rhs),rhsMax =  -2.22282511294636E-06  1.48665153377125E-02
 cg2d: Sum(rhs),rhsMax =  -2.23525292486829E-06  1.49188979649979E-02
 cg2d: Sum(rhs),rhsMax =  -2.24769149695728E-06  1.49712983115822E-02
 cg2d: Sum(rhs),rhsMax =  -2.26014067782401E-06  1.50237163287121E-02
 cg2d: Sum(rhs),rhsMax =  -2.27260096347104E-06  1.50761519673982E-02
 cg2d: Sum(rhs),rhsMax =  -2.28507273818124E-06  1.51286051784145E-02
 cg2d: Sum(rhs),rhsMax =  -2.29755561086814E-06  1.51810759122991E-02
 cg2d: Sum(rhs),rhsMax =  -2.31005040617419E-06  1.52335641193564E-02
 cg2d: Sum(rhs),rhsMax =  -2.32255689887328E-06  1.52860697496556E-02
 cg2d: Sum(rhs),rhsMax =  -2.33507559772167E-06  1.53385927530317E-02
 cg2d: Sum(rhs),rhsMax =  -2.34760642075366E-06  1.53911330790860E-02
 cg2d: Sum(rhs),rhsMax =  -2.36014959269920E-06  1.54436906771883E-02
 cg2d: Sum(rhs),rhsMax =  -2.37270543884671E-06  1.54962654964747E-02
 cg2d: Sum(rhs),rhsMax =  -2.38527424676130E-06  1.55488574858491E-02
 cg2d: Sum(rhs),rhsMax =  -2.39785576552562E-06  1.56014665939850E-02
 cg2d: Sum(rhs),rhsMax =  -2.41045069139870E-06  1.56540927693245E-02
 cg2d: Sum(rhs),rhsMax =  -2.42305866238884E-06  1.57067359600793E-02
 cg2d: Sum(rhs),rhsMax =  -2.43568015739423E-06  1.57593961142316E-02
 cg2d: Sum(rhs),rhsMax =  -2.44831533493389E-06  1.58120731795332E-02
 cg2d: Sum(rhs),rhsMax =  -2.46096449844566E-06  1.58647671035087E-02
 cg2d: Sum(rhs),rhsMax =  -2.47362776717094E-06  1.59174778334527E-02
 cg2d: Sum(rhs),rhsMax =  -2.48630513518741E-06  1.59702053164334E-02
 cg2d: Sum(rhs),rhsMax =  -2.49899672644799E-06  1.60229494992904E-02
 cg2d: Sum(rhs),rhsMax =  -2.51170326731262E-06  1.60757103286379E-02
 cg2d: Sum(rhs),rhsMax =  -2.52442458868740E-06  1.61284877508623E-02
 cg2d: Sum(rhs),rhsMax =  -2.53716059171738E-06  1.61812817121259E-02
 cg2d: Sum(rhs),rhsMax =  -2.54991169837404E-06  1.62340921583638E-02
 cg2d: Sum(rhs),rhsMax =  -2.56267813197875E-06  1.62869190352887E-02
 cg2d: Sum(rhs),rhsMax =  -2.57545964361949E-06  1.63397622883869E-02
 cg2d: Sum(rhs),rhsMax =  -2.58825704003637E-06  1.63926218629226E-02
 cg2d: Sum(rhs),rhsMax =  -2.60106994771567E-06  1.64454977039364E-02
 cg2d: Sum(rhs),rhsMax =  -2.61389872769149E-06  1.64983897562457E-02
 cg2d: Sum(rhs),rhsMax =  -2.62674359766818E-06  1.65512979644457E-02
 cg2d: Sum(rhs),rhsMax =  -2.63960464022203E-06  1.66042222729115E-02
 cg2d: Sum(rhs),rhsMax =  -2.65248200293985E-06  1.66571626257949E-02
 cg2d: Sum(rhs),rhsMax =  -2.66537583166332E-06  1.67101189670287E-02
 cg2d: Sum(rhs),rhsMax =  -2.67828649634649E-06  1.67630912403257E-02
 cg2d: Sum(rhs),rhsMax =  -2.69121378103018E-06  1.68160793891773E-02
 cg2d: Sum(rhs),rhsMax =  -2.70415821633160E-06  1.68690833568583E-02
 cg2d: Sum(rhs),rhsMax =  -2.71711973923519E-06  1.69221030864238E-02
 cg2d: Sum(rhs),rhsMax =  -2.73009843371891E-06  1.69751385207103E-02
 cg2d: Sum(rhs),rhsMax =  -2.74309450812998E-06  1.70281896023379E-02
 cg2d: Sum(rhs),rhsMax =  -2.75610801696649E-06  1.70812562737087E-02
 cg2d: Sum(rhs),rhsMax =  -2.76913942517595E-06  1.71343384770104E-02
 cg2d: Sum(rhs),rhsMax =  -2.78218870454483E-06  1.71874361542123E-02
 cg2d: Sum(rhs),rhsMax =  -2.79525593130034E-06  1.72405492470695E-02
 cg2d: Sum(rhs),rhsMax =  -2.80834134445268E-06  1.72936776971224E-02
 cg2d: Sum(rhs),rhsMax =  -2.82144494962583E-06  1.73468214456966E-02
 cg2d: Sum(rhs),rhsMax =  -2.83456690480452E-06  1.73999804339038E-02
 cg2d: Sum(rhs),rhsMax =  -2.84770737760467E-06  1.74531546026431E-02
 cg2d: Sum(rhs),rhsMax =  -2.86086653905268E-06  1.75063438925996E-02
 cg2d: Sum(rhs),rhsMax =  -2.87404462568849E-06  1.75595482442474E-02
 cg2d: Sum(rhs),rhsMax =  -2.88724166062557E-06  1.76127675978477E-02
 cg2d: Sum(rhs),rhsMax =  -2.90045756171087E-06  1.76660018934525E-02
 cg2d: Sum(rhs),rhsMax =  -2.91369302382605E-06  1.77192510708995E-02
 cg2d: Sum(rhs),rhsMax =  -2.92694754009531E-06  1.77725150698201E-02
 cg2d: Sum(rhs),rhsMax =  -2.94022191071538E-06  1.78257938296336E-02
 cg2d: Sum(rhs),rhsMax =  -2.95351586687351E-06  1.78790872895513E-02
 cg2d: Sum(rhs),rhsMax =  -2.96682954002356E-06  1.79323953885741E-02
 cg2d: Sum(rhs),rhsMax =  -2.98016307903951E-06  1.79857180654980E-02
(PID.TID 0000.0001)      cg2d_init_res =   2.21402300369651E-02
(PID.TID 0000.0001)      cg2d_iters(min,last) =      -1      93
(PID.TID 0000.0001)      cg2d_last_res =   7.90421481994995E-08
(PID.TID 0000.0001) // =======================================================
(PID.TID 0000.0001) // Begin MONITOR dynamic field statistics
(PID.TID 0000.0001) // =======================================================
(PID.TID 0000.0001) %MON time_tsnumber                =                   360
(PID.TID 0000.0001) %MON time_secondsf                =   4.3200000000000E+05
(PID.TID 0000.0001) %MON dynstat_eta_max              =   1.2648041437305E-02
(PID.TID 0000.0001) %MON dynstat_eta_min              =  -1.0181234599047E-02
(PID.TID 0000.0001) %MON dynstat_eta_mean             =   2.6986272416539E-10
(PID.TID 0000.0001) %MON dynstat_eta_sd               =   6.4717473769005E-03
(PID.TID 0000.0001) %MON dynstat_eta_del2             =   1.0238926695686E-06
(PID.TID 0000.0001) %MON dynstat_uvel_max             =   5.3936075208331E-03
(PID.TID 0000.0001) %MON dynstat_uvel_min             =  -4.8800214962507E-03
(PID.TID 0000.0001) %MON dynstat_uvel_mean            =  -3.2404768347075E-07
(PID.TID 0000.0001) %MON dynstat_uvel_sd              =   2.7554822876266E-03
(PID.TID 0000.0001) %MON dynstat_uvel_del2            =   2.6890577742933E-06
(PID.TID 0000.0001) %MON dynstat_vvel_max             =   9.2978646081179E-03
(PID.TID 0000.0001) %MON dynstat_vvel_min             =  -5.3000661520146E-03
(PID.TID 0000.0001) %MON dynstat_vvel_mean            =   4.8928054500883E-08
(PID.TID 0000.0001) %MON dynstat_vvel_sd              =   2.8544693927896E-03
(PID.TID 0000.0001) %MON dynstat_vvel_del2            =   4.1363207924175E-06
(PID.TID 0000.0001) %MON dynstat_wvel_max             =   3.0567876373134E-08
(PID.TID 0000.0001) %MON dynstat_wvel_min             =  -2.0472406227245E-08
(PID.TID 0000.0001) %MON dynstat_wvel_mean            =   6.2508156083317E-22
(PID.TID 0000.0001) %MON dynstat_wvel_sd              =   1.4878263572127E-08
(PID.TID 0000.0001) %MON dynstat_wvel_del2            =   3.1652015141689E-12
(PID.TID 0000.0001) %MON dynstat_theta_max            =   2.0000000000000E+01
(PID.TID 0000.0001) %MON dynstat_theta_min            =   2.0000000000000E+01
(PID.TID 0000.0001) %MON dynstat_theta_mean           =   2.0000000000000E+01
(PID.TID 0000.0001) %MON dynstat_theta_sd             =   3.8014036363165E-13
(PID.TID 0000.0001) %MON dynstat_theta_del2           =   0.0000000000000E+00
(PID.TID 0000.0001) %MON dynstat_salt_max             =   3.0000000000000E+01
(PID.TID 0000.0001) %MON dynstat_salt_min             =   3.0000000000000E+01
(PID.TID 0000.0001) %MON dynstat_salt_mean            =   2.9999999999999E+01
(PID.TID 0000.0001) %MON dynstat_salt_sd              =   5.5777604757167E-13
(PID.TID 0000.0001) %MON dynstat_salt_del2            =   0.0000000000000E+00
(PID.TID 0000.0001) %MON trAdv_CFL_u_max              =   3.2255689527347E-04
(PID.TID 0000.0001) %MON trAdv_CFL_v_max              =   5.5609299011883E-04
(PID.TID 0000.0001) %MON trAdv_CFL_w_max              =   8.0603753209156E-09
(PID.TID 0000.0001) %MON advcfl_uvel_max              =   3.2361645124999E-04
(PID.TID 0000.0001) %MON advcfl_vvel_max              =   5.5787187648707E-04
(PID.TID 0000.0001) %MON advcfl_wvel_max              =   1.4672580659104E-08
(PID.TID 0000.0001) %MON advcfl_W_hf_max              =   0.0000000000000E+00
(PID.TID 0000.0001) %MON pe_b_mean                    =   4.2940431691446E-08
(PID.TID 0000.0001) %MON ke_max                       =   4.3179815832370E-05
(PID.TID 0000.0001) %MON ke_mean                      =   7.7256144851374E-06
(PID.TID 0000.0001) %MON ke_vol                       =   6.8893493896486E+15
(PID.TID 0000.0001) %MON vort_r_min                   =  -3.8613322028377E-08
(PID.TID 0000.0001) %MON vort_r_max                   =   3.7224778273061E-07
(PID.TID 0000.0001) %MON vort_a_mean                  =   1.0600000000000E-04
(PID.TID 0000.0001) %MON vort_a_sd                    =   3.5180794693257E-06
(PID.TID 0000.0001) %MON vort_p_mean                  =   1.1652272308690E-04
(PID.TID 0000.0001) %MON vort_p_sd                    =   4.1580291478586E-05
(PID.TID 0000.0001) %MON surfExpan_theta_mean         =   1.2537131826523E-20
(PID.TID 0000.0001) %MON surfExpan_salt_mean          =   1.8848014507158E-20
(PID.TID 0000.0001) // =======================================================
(PID.TID 0000.0001) // End MONITOR dynamic field statistics
(PID.TID 0000.0001) // =======================================================
 cg2d: Sum(rhs),rhsMax =  -2.99351677864393E-06  1.80390552589085E-02
 cg2d: Sum(rhs),rhsMax =  -3.00689051944622E-06  1.80924069071851E-02
 cg2d: Sum(rhs),rhsMax =  -3.02028454791242E-06  1.81457729485013E-02
 cg2d: Sum(rhs),rhsMax =  -3.03369932697084E-06  1.81991533208241E-02
 cg2d: Sum(rhs),rhsMax =  -3.04713434425355E-06  1.82525479619142E-02
 cg2d: Sum(rhs),rhsMax =  -3.06059009482634E-06  1.83059568093296E-02
 cg2d: Sum(rhs),rhsMax =  -3.07406674977112E-06  1.83593798004215E-02
 cg2d: Sum(rhs),rhsMax =  -3.08756421694631E-06  1.84128168723384E-02
 cg2d: Sum(rhs),rhsMax =  -3.10108258835123E-06  1.84662679620253E-02
 cg2d: Sum(rhs),rhsMax =  -3.11462249318398E-06  1.85197330062243E-02
 cg2d: Sum(rhs),rhsMax =  -3.12818322648414E-06  1.85732119414750E-02
 cg2d: Sum(rhs),rhsMax =  -3.14176572745878E-06  1.86267047041156E-02
 cg2d: Sum(rhs),rhsMax =  -3.15536960407772E-06  1.86802112302827E-02
 cg2d: Sum(rhs),rhsMax =  -3.16899515866512E-06  1.87337314559123E-02
 cg2d: Sum(rhs),rhsMax =  -3.18264256181020E-06  1.87872653167401E-02
 cg2d: Sum(rhs),rhsMax =  -3.19631183468352E-06  1.88408127483024E-02
 cg2d: Sum(rhs),rhsMax =  -3.21000322232173E-06  1.88943736859353E-02
 cg2d: Sum(rhs),rhsMax =  -3.22371657148282E-06  1.89479480647783E-02
 cg2d: Sum(rhs),rhsMax =  -3.23745229680039E-06  1.90015358197707E-02
 cg2d: Sum(rhs),rhsMax =  -3.25121049829513E-06  1.90551368856556E-02
 cg2d: Sum(rhs),rhsMax =  -3.26499091444013E-06  1.91087511969784E-02
 cg2d: Sum(rhs),rhsMax =  -3.27879422313063E-06  1.91623786880881E-02
 cg2d: Sum(rhs),rhsMax =  -3.29262015498141E-06  1.92160192931375E-02
 cg2d: Sum(rhs),rhsMax =  -3.30646926389663E-06  1.92696729460854E-02
 cg2d: Sum(rhs),rhsMax =  -3.32034083293936E-06  1.93233395806933E-02
 cg2d: Sum(rhs),rhsMax =  -3.33423575830591E-06  1.93770191305302E-02
 cg2d: Sum(rhs),rhsMax =  -3.34815382582038E-06  1.94307115289699E-02
 cg2d: Sum(rhs),rhsMax =  -3.36209494093687E-06  1.94844167091943E-02
 cg2d: Sum(rhs),rhsMax =  -3.37605972590763E-06  1.95381346041911E-02
 cg2d: Sum(rhs),rhsMax =  -3.39004791760980E-06  1.95918651467572E-02
 cg2d: Sum(rhs),rhsMax =  -3.40405990601617E-06  1.96456082694954E-02
 cg2d: Sum(rhs),rhsMax =  -3.41809556534886E-06  1.96993639048208E-02
 cg2d: Sum(rhs),rhsMax =  -3.43215508196923E-06  1.97531319849544E-02
 cg2d: Sum(rhs),rhsMax =  -3.44623848252262E-06  1.98069124419291E-02
 cg2d: Sum(rhs),rhsMax =  -3.46034614800983E-06  1.98607052075879E-02
 cg2d: Sum(rhs),rhsMax =  -3.47447788100197E-06  1.99145102135835E-02
 cg2d: Sum(rhs),rhsMax =  -3.48863388293513E-06  1.99683273913817E-02
 cg2d: Sum(rhs),rhsMax =  -3.50281427790797E-06  2.00221566722593E-02
 cg2d: Sum(rhs),rhsMax =  -3.51701919737782E-06  2.00759979873059E-02
 cg2d: Sum(rhs),rhsMax =  -3.53124879249808E-06  2.01298512674246E-02
 cg2d: Sum(rhs),rhsMax =  -3.54550312272814E-06  2.01837164433312E-02
 cg2d: Sum(rhs),rhsMax =  -3.55978241640270E-06  2.02375934455565E-02
 cg2d: Sum(rhs),rhsMax =  -3.57408630865044E-06  2.02914822044448E-02
 cg2d: Sum(rhs),rhsMax =  -3.58841564467721E-06  2.03453826501574E-02
 cg2d: Sum(rhs),rhsMax =  -3.60276975708979E-06  2.03992947126695E-02
 cg2d: Sum(rhs),rhsMax =  -3.61714931410365E-06  2.04532183217738E-02
 cg2d: Sum(rhs),rhsMax =  -3.63155461515982E-06  2.05071534070794E-02
 cg2d: Sum(rhs),rhsMax =  -3.64598484604156E-06  2.05610998980125E-02
 cg2d: Sum(rhs),rhsMax =  -3.66044082966699E-06  2.06150577238173E-02
 cg2d: Sum(rhs),rhsMax =  -3.67492249071094E-06  2.06690268135567E-02
 cg2d: Sum(rhs),rhsMax =  -3.68943006585562E-06  2.07230070961125E-02
 cg2d: Sum(rhs),rhsMax =  -3.70396337513040E-06  2.07769985001862E-02
 cg2d: Sum(rhs),rhsMax =  -3.71852269569900E-06  2.08310009542981E-02
 cg2d: Sum(rhs),rhsMax =  -3.73310808273256E-06  2.08850143867903E-02
 cg2d: Sum(rhs),rhsMax =  -3.74771977156366E-06  2.09390387258260E-02
 cg2d: Sum(rhs),rhsMax =  -3.76235759720969E-06  2.09930738993899E-02
 cg2d: Sum(rhs),rhsMax =  -3.77702196972807E-06  2.10471198352880E-02
 cg2d: Sum(rhs),rhsMax =  -3.79171284979260E-06  2.11011764611502E-02
 cg2d: Sum(rhs),rhsMax =  -3.80643041715534E-06  2.11552437044296E-02
 cg2d: Sum(rhs),rhsMax =  -3.82117461869211E-06  2.12093214924015E-02
 cg2d: Sum(rhs),rhsMax =  -3.83594546724333E-06  2.12634097521681E-02
 cg2d: Sum(rhs),rhsMax =  -3.85074314650583E-06  2.13175084106542E-02
 cg2d: Sum(rhs),rhsMax =  -3.86556780904504E-06  2.13716173946119E-02
 cg2d: Sum(rhs),rhsMax =  -3.89299747494479E-06  2.14257366623624E-02
 cg2d: Sum(rhs),rhsMax =  -3.92044326552599E-06  2.14798660755457E-02
 cg2d: Sum(rhs),rhsMax =  -3.94789884559932E-06  2.15340055938561E-02
 cg2d: Sum(rhs),rhsMax =  -3.97536655214956E-06  2.15881551436725E-02
 cg2d: Sum(rhs),rhsMax =  -4.00284681918717E-06  2.16423146500487E-02
 cg2d: Sum(rhs),rhsMax =  -4.03034022117971E-06  2.16964840386927E-02
 cg2d: Sum(rhs),rhsMax =  -4.05784661276082E-06  2.17506632352331E-02
 cg2d: Sum(rhs),rhsMax =  -4.08536667603418E-06  2.18048521650607E-02
 cg2d: Sum(rhs),rhsMax =  -4.11290055628982E-06  2.18590507533639E-02
(PID.TID 0000.0001)      cg2d_init_res =   1.82460749423841E-02
(PID.TID 0000.0001)      cg2d_iters(min,last) =      -1      92
(PID.TID 0000.0001)      cg2d_last_res =   9.89142415430373E-08
(PID.TID 0000.0001) // =======================================================
(PID.TID 0000.0001) // Begin MONITOR dynamic field statistics
(PID.TID 0000.0001) // =======================================================
(PID.TID 0000.0001) %MON time_tsnumber                =                   432
(PID.TID 0000.0001) %MON time_secondsf                =   5.1840000000000E+05
(PID.TID 0000.0001) %MON dynstat_eta_max              =   1.5189899576010E-02
(PID.TID 0000.0001) %MON dynstat_eta_min              =  -1.1876428475502E-02
(PID.TID 0000.0001) %MON dynstat_eta_mean             =   4.5342116925346E-10
(PID.TID 0000.0001) %MON dynstat_eta_sd               =   7.7164809634386E-03
(PID.TID 0000.0001) %MON dynstat_eta_del2             =   1.2921017825625E-06
(PID.TID 0000.0001) %MON dynstat_uvel_max             =   6.6186157301975E-03
(PID.TID 0000.0001) %MON dynstat_uvel_min             =  -5.7128091088465E-03
(PID.TID 0000.0001) %MON dynstat_uvel_mean            =  -3.6947206215255E-07
(PID.TID 0000.0001) %MON dynstat_uvel_sd              =   3.2677160268324E-03
(PID.TID 0000.0001) %MON dynstat_uvel_del2            =   3.4463724495394E-06
(PID.TID 0000.0001) %MON dynstat_vvel_max             =   1.1468607104250E-02
(PID.TID 0000.0001) %MON dynstat_vvel_min             =  -5.9348428141805E-03
(PID.TID 0000.0001) %MON dynstat_vvel_mean            =   8.6295037748087E-08
(PID.TID 0000.0001) %MON dynstat_vvel_sd              =   3.4114072257276E-03
(PID.TID 0000.0001) %MON dynstat_vvel_del2            =   5.4159080374611E-06
(PID.TID 0000.0001) %MON dynstat_wvel_max             =   3.1067076233521E-08
(PID.TID 0000.0001) %MON dynstat_wvel_min             =  -1.9652962338105E-08
(PID.TID 0000.0001) %MON dynstat_wvel_mean            =  -8.6472431980332E-22
(PID.TID 0000.0001) %MON dynstat_wvel_sd              =   1.4760278402780E-08
(PID.TID 0000.0001) %MON dynstat_wvel_del2            =   3.4077515415773E-12
(PID.TID 0000.0001) %MON dynstat_theta_max            =   2.0000000000000E+01
(PID.TID 0000.0001) %MON dynstat_theta_min            =   2.0000000000000E+01
(PID.TID 0000.0001) %MON dynstat_theta_mean           =   2.0000000000000E+01
(PID.TID 0000.0001) %MON dynstat_theta_sd             =   3.8014036363165E-13
(PID.TID 0000.0001) %MON dynstat_theta_del2           =   0.0000000000000E+00
(PID.TID 0000.0001) %MON dynstat_salt_max             =   3.0000000000000E+01
(PID.TID 0000.0001) %MON dynstat_salt_min             =   3.0000000000000E+01
(PID.TID 0000.0001) %MON dynstat_salt_mean            =   2.9999999999999E+01
(PID.TID 0000.0001) %MON dynstat_salt_sd              =   5.5777604757167E-13
(PID.TID 0000.0001) %MON dynstat_salt_del2            =   0.0000000000000E+00
(PID.TID 0000.0001) %MON trAdv_CFL_u_max              =   3.9597178301778E-04
(PID.TID 0000.0001) %MON trAdv_CFL_v_max              =   6.8628111971101E-04
(PID.TID 0000.0001) %MON trAdv_CFL_w_max              =   8.1641968229938E-09
(PID.TID 0000.0001) %MON advcfl_uvel_max              =   3.9711694381185E-04
(PID.TID 0000.0001) %MON advcfl_vvel_max              =   6.8811642625498E-04
(PID.TID 0000.0001) %MON advcfl_wvel_max              =   1.4912196592090E-08
(PID.TID 0000.0001) %MON advcfl_W_hf_max              =   0.0000000000000E+00
(PID.TID 0000.0001) %MON pe_b_mean                    =   6.1046654943108E-08
(PID.TID 0000.0001) %MON ke_max                       =   6.5758103580830E-05
(PID.TID 0000.0001) %MON ke_mean                      =   1.0952656597639E-05
(PID.TID 0000.0001) %MON ke_vol                       =   6.8893493896486E+15
(PID.TID 0000.0001) %MON vort_r_min                   =  -5.0164474098504E-08
(PID.TID 0000.0001) %MON vort_r_max                   =   4.4373378078366E-07
(PID.TID 0000.0001) %MON vort_a_mean                  =   1.0600000000000E-04
(PID.TID 0000.0001) %MON vort_a_sd                    =   3.5182022411433E-06
(PID.TID 0000.0001) %MON vort_p_mean                  =   1.1652272308690E-04
(PID.TID 0000.0001) %MON vort_p_sd                    =   4.1590813010261E-05
(PID.TID 0000.0001) %MON surfExpan_theta_mean         =  -1.7182522071835E-20
(PID.TID 0000.0001) %MON surfExpan_salt_mean          =  -2.5717877210556E-20
(PID.TID 0000.0001) // =======================================================
(PID.TID 0000.0001) // End MONITOR dynamic field statistics
(PID.TID 0000.0001) // =======================================================
 cg2d: Sum(rhs),rhsMax =  -4.14044870953451E-06  2.19132589251602E-02
 cg2d: Sum(rhs),rhsMax =  -4.16801141674486E-06  2.19674766053112E-02
 cg2d: Sum(rhs),rhsMax =  -4.19558868114053E-06  2.20217037185188E-02
 cg2d: Sum(rhs),rhsMax =  -4.22318111978001E-06  2.20759401893219E-02
 cg2d: Sum(rhs),rhsMax =  -4.25078899800313E-06  2.21301859420886E-02
 cg2d: Sum(rhs),rhsMax =  -4.27841281254449E-06  2.21844409010179E-02
 cg2d: Sum(rhs),rhsMax =  -4.30605255316921E-06  2.22387049901403E-02
 cg2d: Sum(rhs),rhsMax =  -4.33370878806863E-06  2.22929781333203E-02
 cg2d: Sum(rhs),rhsMax =  -4.36138175561110E-06  2.23472602542569E-02
 cg2d: Sum(rhs),rhsMax =  -4.38907147935069E-06  2.24015512764867E-02
 cg2d: Sum(rhs),rhsMax =  -4.41677870481258E-06  2.24558511233838E-02
 cg2d: Sum(rhs),rhsMax =  -4.44450368412147E-06  2.25101597181582E-02
 cg2d: Sum(rhs),rhsMax =  -4.47224626726542E-06  2.25644769838598E-02
 cg2d: Sum(rhs),rhsMax =  -4.50000690612948E-06  2.26188028433737E-02
 cg2d: Sum(rhs),rhsMax =  -4.52778611808799E-06  2.26731372194259E-02
 cg2d: Sum(rhs),rhsMax =  -4.55558424103386E-06  2.27274800345789E-02
 cg2d: Sum(rhs),rhsMax =  -4.58340115345665E-06  2.27818312112359E-02
 cg2d: Sum(rhs),rhsMax =  -4.61123736727326E-06  2.28361906716399E-02
 cg2d: Sum(rhs),rhsMax =  -4.63909346781755E-06  2.28905583378740E-02
 cg2d: Sum(rhs),rhsMax =  -4.66696943005399E-06  2.29449341318643E-02
 cg2d: Sum(rhs),rhsMax =  -4.69486543075437E-06  2.29993179753765E-02
 cg2d: Sum(rhs),rhsMax =  -4.72278205663687E-06  2.30537097900202E-02
 cg2d: Sum(rhs),rhsMax =  -4.75071920021802E-06  2.31081094972469E-02
 cg2d: Sum(rhs),rhsMax =  -4.77867740083029E-06  2.31625170183527E-02
 cg2d: Sum(rhs),rhsMax =  -4.80665702776509E-06  2.32169322744767E-02
 cg2d: Sum(rhs),rhsMax =  -4.83465824670237E-06  2.32713551866032E-02
 cg2d: Sum(rhs),rhsMax =  -4.86268136534046E-06  2.33257856755613E-02
 cg2d: Sum(rhs),rhsMax =  -4.89072658395318E-06  2.33802236620252E-02
 cg2d: Sum(rhs),rhsMax =  -4.91879395184830E-06  2.34346690665159E-02
 cg2d: Sum(rhs),rhsMax =  -4.94688428794715E-06  2.34891218094019E-02
 cg2d: Sum(rhs),rhsMax =  -4.97499749942815E-06  2.35435818108963E-02
 cg2d: Sum(rhs),rhsMax =  -5.00313384355425E-06  2.35980489910632E-02
 cg2d: Sum(rhs),rhsMax =  -5.03129374281736E-06  2.36525232698143E-02
 cg2d: Sum(rhs),rhsMax =  -5.05947729490669E-06  2.37070045669076E-02
 cg2d: Sum(rhs),rhsMax =  -5.08768485908695E-06  2.37614928019542E-02
 cg2d: Sum(rhs),rhsMax =  -5.11591659438024E-06  2.38159878944140E-02
 cg2d: Sum(rhs),rhsMax =  -5.14417293563663E-06  2.38704897635958E-02
 cg2d: Sum(rhs),rhsMax =  -5.17245401983335E-06  2.39249983286622E-02
 cg2d: Sum(rhs),rhsMax =  -5.20076016371357E-06  2.39795135086260E-02
 cg2d: Sum(rhs),rhsMax =  -5.22909174383371E-06  2.40340352223530E-02
 cg2d: Sum(rhs),rhsMax =  -5.25744859479482E-06  2.40885633885607E-02
 cg2d: Sum(rhs),rhsMax =  -5.28583129540822E-06  2.41430979258206E-02
 cg2d: Sum(rhs),rhsMax =  -5.31424014395265E-06  2.41976387525595E-02
 cg2d: Sum(rhs),rhsMax =  -5.34267498093419E-06  2.42521857870559E-02
 cg2d: Sum(rhs),rhsMax =  -5.37113666567585E-06  2.43067389474462E-02
 cg2d: Sum(rhs),rhsMax =  -5.39962518524700E-06  2.43612981517205E-02
 cg2d: Sum(rhs),rhsMax =  -5.42814057392926E-06  2.44158633177255E-02
 cg2d: Sum(rhs),rhsMax =  -5.45668341215416E-06  2.44704343631653E-02
 cg2d: Sum(rhs),rhsMax =  -5.48525373015099E-06  2.45250112055997E-02
 cg2d: Sum(rhs),rhsMax =  -5.51385189886608E-06  2.45795937624481E-02
 cg2d: Sum(rhs),rhsMax =  -5.54247809657349E-06  2.46341819509881E-02
 cg2d: Sum(rhs),rhsMax =  -5.57113256801842E-06  2.46887756883552E-02
 cg2d: Sum(rhs),rhsMax =  -5.59981542929203E-06  2.47433748915448E-02
 cg2d: Sum(rhs),rhsMax =  -5.62852689216589E-06  2.47979794774128E-02
 cg2d: Sum(rhs),rhsMax =  -5.65726766032018E-06  2.48525893626751E-02
 cg2d: Sum(rhs),rhsMax =  -5.68603772966095E-06  2.49072044639092E-02
 cg2d: Sum(rhs),rhsMax =  -5.71483701600553E-06  2.49618246975543E-02
 cg2d: Sum(rhs),rhsMax =  -5.74366606551774E-06  2.50164499799122E-02
 cg2d: Sum(rhs),rhsMax =  -5.77252511254137E-06  2.50710802271469E-02
 cg2d: Sum(rhs),rhsMax =  -5.80141427794847E-06  2.51257153552859E-02
 cg2d: Sum(rhs),rhsMax =  -5.83033372310998E-06  2.51803552802213E-02
 cg2d: Sum(rhs),rhsMax =  -5.85928396558064E-06  2.52349999177094E-02
 cg2d: Sum(rhs),rhsMax =  -5.88826514380525E-06  2.52896491833709E-02
 cg2d: Sum(rhs),rhsMax =  -5.91727732137878E-06  2.53443029926938E-02
 cg2d: Sum(rhs),rhsMax =  -5.94632087080882E-06  2.53989612610305E-02
 cg2d: Sum(rhs),rhsMax =  -5.97539590778406E-06  2.54536239036018E-02
 cg2d: Sum(rhs),rhsMax =  -6.00450259983717E-06  2.55082908354947E-02
 cg2d: Sum(rhs),rhsMax =  -6.03364132005513E-06  2.55629619716644E-02
 cg2d: Sum(rhs),rhsMax =  -6.06281220340635E-06  2.56176372269350E-02
 cg2d: Sum(rhs),rhsMax =  -6.09201562748810E-06  2.56723165159994E-02
 cg2d: Sum(rhs),rhsMax =  -6.12125174699260E-06  2.57269997534195E-02
 cg2d: Sum(rhs),rhsMax =  -6.15052062440113E-06  2.57816868536280E-02
(PID.TID 0000.0001)      cg2d_init_res =   1.55424408780208E-02
(PID.TID 0000.0001)      cg2d_iters(min,last) =      -1      92
(PID.TID 0000.0001)      cg2d_last_res =   9.14932586285931E-08
(PID.TID 0000.0001) // =======================================================
(PID.TID 0000.0001) // Begin MONITOR dynamic field statistics
(PID.TID 0000.0001) // =======================================================
(PID.TID 0000.0001) %MON time_tsnumber                =                   504
(PID.TID 0000.0001) %MON time_secondsf                =   6.0480000000000E+05
(PID.TID 0000.0001) %MON dynstat_eta_max              =   1.7719879284421E-02
(PID.TID 0000.0001) %MON dynstat_eta_min              =  -1.3491467696682E-02
(PID.TID 0000.0001) %MON dynstat_eta_mean             =   7.9791211248504E-10
(PID.TID 0000.0001) %MON dynstat_eta_sd               =   8.9385903625847E-03
(PID.TID 0000.0001) %MON dynstat_eta_del2             =   1.5791974918812E-06
(PID.TID 0000.0001) %MON dynstat_uvel_max             =   7.9080391173044E-03
(PID.TID 0000.0001) %MON dynstat_uvel_min             =  -6.4689931783101E-03
(PID.TID 0000.0001) %MON dynstat_uvel_mean            =  -4.0598818050140E-07
(PID.TID 0000.0001) %MON dynstat_uvel_sd              =   3.7653225147725E-03
(PID.TID 0000.0001) %MON dynstat_uvel_del2            =   4.1978827650126E-06
(PID.TID 0000.0001) %MON dynstat_vvel_max             =   1.3709528009653E-02
(PID.TID 0000.0001) %MON dynstat_vvel_min             =  -6.4421547233380E-03
(PID.TID 0000.0001) %MON dynstat_vvel_mean            =   1.2808642037499E-07
(PID.TID 0000.0001) %MON dynstat_vvel_sd              =   3.9634697525355E-03
(PID.TID 0000.0001) %MON dynstat_vvel_del2            =   6.7528832060016E-06
(PID.TID 0000.0001) %MON dynstat_wvel_max             =   3.1605290348452E-08
(PID.TID 0000.0001) %MON dynstat_wvel_min             =  -1.8780070189296E-08
(PID.TID 0000.0001) %MON dynstat_wvel_mean            =   7.8759815854331E-22
(PID.TID 0000.0001) %MON dynstat_wvel_sd              =   1.4631649528665E-08
(PID.TID 0000.0001) %MON dynstat_wvel_del2            =   3.6236533060455E-12
(PID.TID 0000.0001) %MON dynstat_theta_max            =   2.0000000000000E+01
(PID.TID 0000.0001) %MON dynstat_theta_min            =   2.0000000000000E+01
(PID.TID 0000.0001) %MON dynstat_theta_mean           =   2.0000000000000E+01
(PID.TID 0000.0001) %MON dynstat_theta_sd             =   3.8014036363165E-13
(PID.TID 0000.0001) %MON dynstat_theta_del2           =   0.0000000000000E+00
(PID.TID 0000.0001) %MON dynstat_salt_max             =   3.0000000000000E+01
(PID.TID 0000.0001) %MON dynstat_salt_min             =   3.0000000000000E+01
(PID.TID 0000.0001) %MON dynstat_salt_mean            =   2.9999999999999E+01
(PID.TID 0000.0001) %MON dynstat_salt_sd              =   5.5777604757167E-13
(PID.TID 0000.0001) %MON dynstat_salt_del2            =   0.0000000000000E+00
(PID.TID 0000.0001) %MON trAdv_CFL_u_max              =   4.7324081159391E-04
(PID.TID 0000.0001) %MON trAdv_CFL_v_max              =   8.2068383538569E-04
(PID.TID 0000.0001) %MON trAdv_CFL_w_max              =   8.2740649812767E-09
(PID.TID 0000.0001) %MON advcfl_uvel_max              =   4.7448234703826E-04
(PID.TID 0000.0001) %MON advcfl_vvel_max              =   8.2257168057918E-04
(PID.TID 0000.0001) %MON advcfl_wvel_max              =   1.5170539367257E-08
(PID.TID 0000.0001) %MON advcfl_W_hf_max              =   0.0000000000000E+00
(PID.TID 0000.0001) %MON pe_b_mean                    =   8.1914609131500E-08
(PID.TID 0000.0001) %MON ke_max                       =   9.3881343514166E-05
(PID.TID 0000.0001) %MON ke_mean                      =   1.4668585198976E-05
(PID.TID 0000.0001) %MON ke_vol                       =   6.8893493896486E+15
(PID.TID 0000.0001) %MON vort_r_min                   =  -6.2948755831873E-08
(PID.TID 0000.0001) %MON vort_r_max                   =   5.1472963143083E-07
(PID.TID 0000.0001) %MON vort_a_mean                  =   1.0600000000000E-04
(PID.TID 0000.0001) %MON vort_a_sd                    =   3.5183433675742E-06
(PID.TID 0000.0001) %MON vort_p_mean                  =   1.1652272308690E-04
(PID.TID 0000.0001) %MON vort_p_sd                    =   4.1600308573257E-05
(PID.TID 0000.0001) %MON surfExpan_theta_mean         =   1.5739922945260E-20
(PID.TID 0000.0001) %MON surfExpan_salt_mean          =   2.3547682322563E-20
(PID.TID 0000.0001) // =======================================================
(PID.TID 0000.0001) // End MONITOR dynamic field statistics
(PID.TID 0000.0001) // =======================================================
 cg2d: Sum(rhs),rhsMax =  -6.17982282414761E-06  2.58363777309285E-02
 cg2d: Sum(rhs),rhsMax =  -6.20915822748674E-06  2.58910722994955E-02
 cg2d: Sum(rhs),rhsMax =  -6.23852719803739E-06  2.59457704733757E-02
 cg2d: Sum(rhs),rhsMax =  -6.26792989837435E-06  2.60004721664878E-02
 cg2d: Sum(rhs),rhsMax =  -6.29736658006724E-06  2.60551772926231E-02
 cg2d: Sum(rhs),rhsMax =  -6.32683751676522E-06  2.61098857654472E-02
 cg2d: Sum(rhs),rhsMax =  -6.35634294608375E-06  2.61645974985003E-02
 cg2d: Sum(rhs),rhsMax =  -6.38588281132169E-06  2.62193124051962E-02
 cg2d: Sum(rhs),rhsMax =  -6.41545760420373E-06  2.62740303988248E-02
 cg2d: Sum(rhs),rhsMax =  -6.44506734221589E-06  2.63287513925496E-02
 cg2d: Sum(rhs),rhsMax =  -6.47471234254196E-06  2.63834752994143E-02
 cg2d: Sum(rhs),rhsMax =  -6.50439271835876E-06  2.64382020323366E-02
 cg2d: Sum(rhs),rhsMax =  -6.53410898110440E-06  2.64929315041117E-02
 cg2d: Sum(rhs),rhsMax =  -6.56386099906134E-06  2.65476636274161E-02
 cg2d: Sum(rhs),rhsMax =  -6.59364928956227E-06  2.66023983147997E-02
 cg2d: Sum(rhs),rhsMax =  -6.62347362280144E-06  2.66571354786964E-02
 cg2d: Sum(rhs),rhsMax =  -6.65333504943841E-06  2.67118750314171E-02
 cg2d: Sum(rhs),rhsMax =  -6.68323247910926E-06  2.67666168851545E-02
 cg2d: Sum(rhs),rhsMax =  -6.71316719547815E-06  2.68213609519810E-02
 cg2d: Sum(rhs),rhsMax =  -6.74313899867371E-06  2.68761071438515E-02
 cg2d: Sum(rhs),rhsMax =  -6.77314807950510E-06  2.69308553726026E-02
 cg2d: Sum(rhs),rhsMax =  -6.80319465744608E-06  2.69856055499528E-02
 cg2d: Sum(rhs),rhsMax =  -6.83327903550426E-06  2.70403575875050E-02
 cg2d: Sum(rhs),rhsMax =  -6.86340138849120E-06  2.70951113967458E-02
 cg2d: Sum(rhs),rhsMax =  -6.89356181973397E-06  2.71498668890441E-02
 cg2d: Sum(rhs),rhsMax =  -6.92376058367833E-06  2.72046239756560E-02
 cg2d: Sum(rhs),rhsMax =  -6.95399803016944E-06  2.72593825677229E-02
 cg2d: Sum(rhs),rhsMax =  -6.98427397121532E-06  2.73141425762705E-02
 cg2d: Sum(rhs),rhsMax =  -7.01458888970052E-06  2.73689039122124E-02
 cg2d: Sum(rhs),rhsMax =  -7.04494309943654E-06  2.74236664863497E-02
 cg2d: Sum(rhs),rhsMax =  -7.07533635470325E-06  2.74784302093704E-02
 cg2d: Sum(rhs),rhsMax =  -7.10576941280808E-06  2.75331949918506E-02
 cg2d: Sum(rhs),rhsMax =  -7.13624203850169E-06  2.75879607442565E-02
 cg2d: Sum(rhs),rhsMax =  -7.16675469929554E-06  2.76427273769425E-02
 cg2d: Sum(rhs),rhsMax =  -7.19730729193888E-06  2.76974948001541E-02
 cg2d: Sum(rhs),rhsMax =  -7.22790037625126E-06  2.77522629240261E-02
 cg2d: Sum(rhs),rhsMax =  -7.25853385660433E-06  2.78070316585864E-02
 cg2d: Sum(rhs),rhsMax =  -7.28920797301094E-06  2.78618009137526E-02
 cg2d: Sum(rhs),rhsMax =  -7.31992305829862E-06  2.79165705993345E-02
 cg2d: Sum(rhs),rhsMax =  -7.35067911187062E-06  2.79713406250375E-02
 cg2d: Sum(rhs),rhsMax =  -7.38147640600567E-06  2.80261109004581E-02
 cg2d: Sum(rhs),rhsMax =  -7.41231504531106E-06  2.80808813350874E-02
 cg2d: Sum(rhs),rhsMax =  -7.44319552465483E-06  2.81356518383116E-02
 cg2d: Sum(rhs),rhsMax =  -7.47411766698763E-06  2.81904223194101E-02
 cg2d: Sum(rhs),rhsMax =  -7.50508170923453E-06  2.82451926875614E-02
 cg2d: Sum(rhs),rhsMax =  -7.53608823417934E-06  2.82999628518375E-02
 cg2d: Sum(rhs),rhsMax =  -7.56703635419395E-06  2.83551096437762E-02
 cg2d: Sum(rhs),rhsMax =  -7.59802194068293E-06  2.84102740039402E-02
 cg2d: Sum(rhs),rhsMax =  -7.62904899390474E-06  2.84654400757453E-02
 cg2d: Sum(rhs),rhsMax =  -7.66011805159936E-06  2.85206077704356E-02
 cg2d: Sum(rhs),rhsMax =  -7.69122918620191E-06  2.85757769991456E-02
 cg2d: Sum(rhs),rhsMax =  -7.72238273128237E-06  2.86309476729016E-02
 cg2d: Sum(rhs),rhsMax =  -7.75357862240617E-06  2.86861197026242E-02
 cg2d: Sum(rhs),rhsMax =  -7.78481694255206E-06  2.87412929991234E-02
 cg2d: Sum(rhs),rhsMax =  -7.81609831584582E-06  2.87964674731035E-02
 cg2d: Sum(rhs),rhsMax =  -7.84742240442574E-06  2.88516430351626E-02
 cg2d: Sum(rhs),rhsMax =  -7.87878951592422E-06  2.89068195957921E-02
 cg2d: Sum(rhs),rhsMax =  -7.91020014344682E-06  2.89619970653792E-02
 cg2d: Sum(rhs),rhsMax =  -7.94165410350836E-06  2.90171753542055E-02
 cg2d: Sum(rhs),rhsMax =  -7.97315174837568E-06  2.90723543724490E-02
 cg2d: Sum(rhs),rhsMax =  -8.00469336379242E-06  2.91275340301824E-02
 cg2d: Sum(rhs),rhsMax =  -8.03627897333001E-06  2.91827142373782E-02
 cg2d: Sum(rhs),rhsMax =  -8.06790864897947E-06  2.92378949039036E-02
 cg2d: Sum(rhs),rhsMax =  -8.09958271221628E-06  2.92930759395262E-02
 cg2d: Sum(rhs),rhsMax =  -8.13130117857663E-06  2.93482572539095E-02
 cg2d: Sum(rhs),rhsMax =  -8.16306429131386E-06  2.94034387566175E-02
 cg2d: Sum(rhs),rhsMax =  -8.19487220943618E-06  2.94586203571139E-02
 cg2d: Sum(rhs),rhsMax =  -8.22672539295410E-06  2.95138019647634E-02
 cg2d: Sum(rhs),rhsMax =  -8.25862378544401E-06  2.95689834888294E-02
 cg2d: Sum(rhs),rhsMax =  -8.29056773834005E-06  2.96241648384782E-02
 cg2d: Sum(rhs),rhsMax =  -8.32255683059016E-06  2.96793459227776E-02
 cg2d: Sum(rhs),rhsMax =  -8.35459175706210E-06  2.97345266506979E-02
(PID.TID 0000.0001)      cg2d_init_res =   1.35507950712896E-02
(PID.TID 0000.0001)      cg2d_iters(min,last) =      -1      92
(PID.TID 0000.0001)      cg2d_last_res =   8.51524160894992E-08
(PID.TID 0000.0001) // =======================================================
(PID.TID 0000.0001) // Begin MONITOR dynamic field statistics
(PID.TID 0000.0001) // =======================================================
(PID.TID 0000.0001) %MON time_tsnumber                =                   576
(PID.TID 0000.0001) %MON time_secondsf                =   6.9120000000000E+05
(PID.TID 0000.0001) %MON dynstat_eta_max              =   2.0248420514921E-02
(PID.TID 0000.0001) %MON dynstat_eta_min              =  -1.5022906613682E-02
(PID.TID 0000.0001) %MON dynstat_eta_mean             =   1.2485425091537E-09
(PID.TID 0000.0001) %MON dynstat_eta_sd               =   1.0135666233857E-02
(PID.TID 0000.0001) %MON dynstat_eta_del2             =   1.8829367231739E-06
(PID.TID 0000.0001) %MON dynstat_uvel_max             =   9.2699130204139E-03
(PID.TID 0000.0001) %MON dynstat_uvel_min             =  -7.1458919308850E-03
(PID.TID 0000.0001) %MON dynstat_uvel_mean            =  -4.3309251944610E-07
(PID.TID 0000.0001) %MON dynstat_uvel_sd              =   4.2485847823790E-03
(PID.TID 0000.0001) %MON dynstat_uvel_del2            =   4.9328245255261E-06
(PID.TID 0000.0001) %MON dynstat_vvel_max             =   1.5991814396864E-02
(PID.TID 0000.0001) %MON dynstat_vvel_min             =  -6.8336246352136E-03
(PID.TID 0000.0001) %MON dynstat_vvel_mean            =   1.7298140124232E-07
(PID.TID 0000.0001) %MON dynstat_vvel_sd              =   4.5092889527465E-03
(PID.TID 0000.0001) %MON dynstat_vvel_del2            =   8.1344458554670E-06
(PID.TID 0000.0001) %MON dynstat_wvel_max             =   3.2187437027678E-08
(PID.TID 0000.0001) %MON dynstat_wvel_min             =  -1.7868566961024E-08
(PID.TID 0000.0001) %MON dynstat_wvel_mean            =   9.2618089790146E-22
(PID.TID 0000.0001) %MON dynstat_wvel_sd              =   1.4493435402459E-08
(PID.TID 0000.0001) %MON dynstat_wvel_del2            =   3.8177013711078E-12
(PID.TID 0000.0001) %MON dynstat_theta_max            =   2.0000000000000E+01
(PID.TID 0000.0001) %MON dynstat_theta_min            =   2.0000000000000E+01
(PID.TID 0000.0001) %MON dynstat_theta_mean           =   2.0000000000000E+01
(PID.TID 0000.0001) %MON dynstat_theta_sd             =   3.8014036363165E-13
(PID.TID 0000.0001) %MON dynstat_theta_del2           =   0.0000000000000E+00
(PID.TID 0000.0001) %MON dynstat_salt_max             =   3.0000000000000E+01
(PID.TID 0000.0001) %MON dynstat_salt_min             =   3.0000000000000E+01
(PID.TID 0000.0001) %MON dynstat_salt_mean            =   2.9999999999999E+01
(PID.TID 0000.0001) %MON dynstat_salt_sd              =   5.5777604757167E-13
(PID.TID 0000.0001) %MON dynstat_salt_del2            =   0.0000000000000E+00
(PID.TID 0000.0001) %MON trAdv_CFL_u_max              =   5.5481795806193E-04
(PID.TID 0000.0001) %MON trAdv_CFL_v_max              =   9.5759640568969E-04
(PID.TID 0000.0001) %MON trAdv_CFL_w_max              =   8.3894042179441E-09
(PID.TID 0000.0001) %MON advcfl_uvel_max              =   5.5619478122484E-04
(PID.TID 0000.0001) %MON advcfl_vvel_max              =   9.5950886381187E-04
(PID.TID 0000.0001) %MON advcfl_wvel_max              =   1.5449969773286E-08
(PID.TID 0000.0001) %MON advcfl_W_hf_max              =   0.0000000000000E+00
(PID.TID 0000.0001) %MON pe_b_mean                    =   1.0532413357575E-07
(PID.TID 0000.0001) %MON ke_max                       =   1.2773964121647E-04
(PID.TID 0000.0001) %MON ke_mean                      =   1.8839164077062E-05
(PID.TID 0000.0001) %MON ke_vol                       =   6.8893493896486E+15
(PID.TID 0000.0001) %MON vort_r_min                   =  -7.6893559939393E-08
(PID.TID 0000.0001) %MON vort_r_max                   =   5.8461352011255E-07
(PID.TID 0000.0001) %MON vort_a_mean                  =   1.0600000000000E-04
(PID.TID 0000.0001) %MON vort_a_sd                    =   3.5185032940591E-06
(PID.TID 0000.0001) %MON vort_p_mean                  =   1.1652272308690E-04
(PID.TID 0000.0001) %MON vort_p_sd                    =   4.1608960658074E-05
(PID.TID 0000.0001) %MON surfExpan_theta_mean         =   1.8541671901554E-20
(PID.TID 0000.0001) %MON surfExpan_salt_mean          =   2.7841886820726E-20
(PID.TID 0000.0001) // =======================================================
(PID.TID 0000.0001) // End MONITOR dynamic field statistics
(PID.TID 0000.0001) // =======================================================
 cg2d: Sum(rhs),rhsMax =  -8.38667259531536E-06  2.97897069311109E-02
 cg2d: Sum(rhs),rhsMax =  -8.41879934017353E-06  2.98448866727942E-02
 cg2d: Sum(rhs),rhsMax =  -8.45097247320625E-06  2.99000657844279E-02
 cg2d: Sum(rhs),rhsMax =  -8.48319200219549E-06  2.99552441745979E-02
 cg2d: Sum(rhs),rhsMax =  -8.51545802329351E-06  3.00104217517940E-02
 cg2d: Sum(rhs),rhsMax =  -8.54777080117053E-06  3.00655984244119E-02
 cg2d: Sum(rhs),rhsMax =  -8.58013033417510E-06  3.01207741007554E-02
 cg2d: Sum(rhs),rhsMax =  -8.61253683430430E-06  3.01759486890322E-02
 cg2d: Sum(rhs),rhsMax =  -8.64499050047887E-06  3.02311220973596E-02
 cg2d: Sum(rhs),rhsMax =  -8.67749163739259E-06  3.02862942337621E-02
 cg2d: Sum(rhs),rhsMax =  -8.71004014731461E-06  3.03414650061735E-02
 cg2d: Sum(rhs),rhsMax =  -8.74263652836382E-06  3.03966343224352E-02
 cg2d: Sum(rhs),rhsMax =  -8.77528052797144E-06  3.04518020902980E-02
 cg2d: Sum(rhs),rhsMax =  -8.80797265630229E-06  3.05069682174249E-02
 cg2d: Sum(rhs),rhsMax =  -8.84071282342483E-06  3.05621326113891E-02
 cg2d: Sum(rhs),rhsMax =  -8.87350135737180E-06  3.06172951796734E-02
 cg2d: Sum(rhs),rhsMax =  -8.90633857629497E-06  3.06724558296729E-02
 cg2d: Sum(rhs),rhsMax =  -8.93922437558009E-06  3.07276144686978E-02
 cg2d: Sum(rhs),rhsMax =  -8.97215898009937E-06  3.07827710039677E-02
 cg2d: Sum(rhs),rhsMax =  -9.00514256594806E-06  3.08379253426168E-02
 cg2d: Sum(rhs),rhsMax =  -9.03817523624506E-06  3.08930773916947E-02
 cg2d: Sum(rhs),rhsMax =  -9.07125705681272E-06  3.09482270581637E-02
 cg2d: Sum(rhs),rhsMax =  -9.10438839604039E-06  3.10033742489032E-02
 cg2d: Sum(rhs),rhsMax =  -9.13756937108781E-06  3.10585188707066E-02
 cg2d: Sum(rhs),rhsMax =  -9.17080024195188E-06  3.11136608302837E-02
 cg2d: Sum(rhs),rhsMax =  -9.20408075600135E-06  3.11688000342627E-02
 cg2d: Sum(rhs),rhsMax =  -9.23741136892031E-06  3.12239363891887E-02
 cg2d: Sum(rhs),rhsMax =  -9.27079224694385E-06  3.12790698015235E-02
 cg2d: Sum(rhs),rhsMax =  -9.30422333175057E-06  3.13342001776475E-02
 cg2d: Sum(rhs),rhsMax =  -9.33770501331671E-06  3.13893274238615E-02
 cg2d: Sum(rhs),rhsMax =  -9.37123741832566E-06  3.14444514463857E-02
 cg2d: Sum(rhs),rhsMax =  -9.40482060016179E-06  3.14995721513600E-02
 cg2d: Sum(rhs),rhsMax =  -9.43845470776153E-06  3.15546894448444E-02
 cg2d: Sum(rhs),rhsMax =  -9.47214001598140E-06  3.16098032328222E-02
 cg2d: Sum(rhs),rhsMax =  -9.50587676002215E-06  3.16649134211961E-02
 cg2d: Sum(rhs),rhsMax =  -9.53966504643744E-06  3.17200199157930E-02
 cg2d: Sum(rhs),rhsMax =  -9.57350495327594E-06  3.17751226223625E-02
 cg2d: Sum(rhs),rhsMax =  -9.60739632076615E-06  3.18302214465772E-02
 cg2d: Sum(rhs),rhsMax =  -9.64133957635782E-06  3.18853162940338E-02
 cg2d: Sum(rhs),rhsMax =  -9.67533492099090E-06  3.19404070702532E-02
 cg2d: Sum(rhs),rhsMax =  -9.70938240804284E-06  3.19954936806842E-02
 cg2d: Sum(rhs),rhsMax =  -9.74348234318231E-06  3.20505760306988E-02
 cg2d: Sum(rhs),rhsMax =  -9.77763464457895E-06  3.21056540255948E-02
 cg2d: Sum(rhs),rhsMax =  -9.81183980753447E-06  3.21607275705988E-02
 cg2d: Sum(rhs),rhsMax =  -9.84609740656978E-06  3.22157965708653E-02
 cg2d: Sum(rhs),rhsMax =  -9.88040824330405E-06  3.22708609314732E-02
 cg2d: Sum(rhs),rhsMax =  -9.91477199607793E-06  3.23259205574351E-02
 cg2d: Sum(rhs),rhsMax =  -9.94918905791384E-06  3.23809753536872E-02
 cg2d: Sum(rhs),rhsMax =  -9.98365964830286E-06  3.24360252251017E-02
 cg2d: Sum(rhs),rhsMax =  -1.00181837791348E-05  3.24910700764746E-02
 cg2d: Sum(rhs),rhsMax =  -1.00527612874601E-05  3.25461098125374E-02
 cg2d: Sum(rhs),rhsMax =  -1.00873928255453E-05  3.26011443379516E-02
 cg2d: Sum(rhs),rhsMax =  -1.01485299515043E-05  3.26561736273086E-02
 cg2d: Sum(rhs),rhsMax =  -1.02097004392940E-05  3.27111974437750E-02
 cg2d: Sum(rhs),rhsMax =  -1.02709205651516E-05  3.27662157618552E-02
 cg2d: Sum(rhs),rhsMax =  -1.03321852650100E-05  3.28212284888054E-02
 cg2d: Sum(rhs),rhsMax =  -1.03934950185652E-05  3.28762355273445E-02
 cg2d: Sum(rhs),rhsMax =  -1.04548501866954E-05  3.29312367816336E-02
 cg2d: Sum(rhs),rhsMax =  -1.05162511490654E-05  3.29862321560153E-02
 cg2d: Sum(rhs),rhsMax =  -1.05776981185086E-05  3.30412215546804E-02
 cg2d: Sum(rhs),rhsMax =  -1.06391919024347E-05  3.30962048816773E-02
 cg2d: Sum(rhs),rhsMax =  -1.07007325291057E-05  3.31511820409788E-02
 cg2d: Sum(rhs),rhsMax =  -1.07623203497928E-05  3.32061529365168E-02
 cg2d: Sum(rhs),rhsMax =  -1.08239556894860E-05  3.32611174721778E-02
 cg2d: Sum(rhs),rhsMax =  -1.08856391856614E-05  3.33160755517931E-02
 cg2d: Sum(rhs),rhsMax =  -1.09473708602321E-05  3.33710270791322E-02
 cg2d: Sum(rhs),rhsMax =  -1.10091513491686E-05  3.34259719578952E-02
 cg2d: Sum(rhs),rhsMax =  -1.10709810742932E-05  3.34809100917220E-02
 cg2d: Sum(rhs),rhsMax =  -1.11328601143483E-05  3.35358413841900E-02
 cg2d: Sum(rhs),rhsMax =  -1.11947890073551E-05  3.35907657388181E-02
 cg2d: Sum(rhs),rhsMax =  -1.12567683462003E-05  3.36456830590685E-02
 cg2d: Sum(rhs),rhsMax =  -1.13187980751404E-05  3.37005932483499E-02
(PID.TID 0000.0001)      cg2d_init_res =   1.20130476278130E-02
(PID.TID 0000.0001)      cg2d_iters(min,last) =      -1      91
(PID.TID 0000.0001)      cg2d_last_res =   9.82093355878214E-08
(PID.TID 0000.0001) // =======================================================
(PID.TID 0000.0001) // Begin MONITOR dynamic field statistics
(PID.TID 0000.0001) // =======================================================
(PID.TID 0000.0001) %MON time_tsnumber                =                   648
(PID.TID 0000.0001) %MON time_secondsf                =   7.7760000000000E+05
(PID.TID 0000.0001) %MON dynstat_eta_max              =   2.2784711225763E-02
(PID.TID 0000.0001) %MON dynstat_eta_min              =  -1.6468665329746E-02
(PID.TID 0000.0001) %MON dynstat_eta_mean             =   1.9198518039889E-09
(PID.TID 0000.0001) %MON dynstat_eta_sd               =   1.1305652209613E-02
(PID.TID 0000.0001) %MON dynstat_eta_del2             =   2.2012505423252E-06
(PID.TID 0000.0001) %MON dynstat_uvel_max             =   1.0703461539036E-02
(PID.TID 0000.0001) %MON dynstat_uvel_min             =  -7.7428324473472E-03
(PID.TID 0000.0001) %MON dynstat_uvel_mean            =  -4.5055040811254E-07
(PID.TID 0000.0001) %MON dynstat_uvel_sd              =   4.7183539699623E-03
(PID.TID 0000.0001) %MON dynstat_uvel_del2            =   5.6465742110315E-06
(PID.TID 0000.0001) %MON dynstat_vvel_max             =   1.8296400055031E-02
(PID.TID 0000.0001) %MON dynstat_vvel_min             =  -7.1639420366357E-03
(PID.TID 0000.0001) %MON dynstat_vvel_mean            =   2.1960838697536E-07
(PID.TID 0000.0001) %MON dynstat_vvel_sd              =   5.0470445706032E-03
(PID.TID 0000.0001) %MON dynstat_vvel_del2            =   9.5513714900528E-06
(PID.TID 0000.0001) %MON dynstat_wvel_max             =   3.2751309097657E-08
(PID.TID 0000.0001) %MON dynstat_wvel_min             =  -1.6926314222837E-08
(PID.TID 0000.0001) %MON dynstat_wvel_mean            =  -8.6773676836553E-22
(PID.TID 0000.0001) %MON dynstat_wvel_sd              =   1.4346935983353E-08
(PID.TID 0000.0001) %MON dynstat_wvel_del2            =   3.9906515249319E-12
(PID.TID 0000.0001) %MON dynstat_theta_max            =   2.0000000000000E+01
(PID.TID 0000.0001) %MON dynstat_theta_min            =   2.0000000000000E+01
(PID.TID 0000.0001) %MON dynstat_theta_mean           =   2.0000000000000E+01
(PID.TID 0000.0001) %MON dynstat_theta_sd             =   3.8014036363165E-13
(PID.TID 0000.0001) %MON dynstat_theta_del2           =   0.0000000000000E+00
(PID.TID 0000.0001) %MON dynstat_salt_max             =   3.0000000000000E+01
(PID.TID 0000.0001) %MON dynstat_salt_min             =   3.0000000000000E+01
(PID.TID 0000.0001) %MON dynstat_salt_mean            =   2.9999999999999E+01
(PID.TID 0000.0001) %MON dynstat_salt_sd              =   5.5777604757167E-13
(PID.TID 0000.0001) %MON dynstat_salt_del2            =   0.0000000000000E+00
(PID.TID 0000.0001) %MON trAdv_CFL_u_max              =   6.4070144609360E-04
(PID.TID 0000.0001) %MON trAdv_CFL_v_max              =   1.0958468004992E-03
(PID.TID 0000.0001) %MON trAdv_CFL_w_max              =   8.5066354654311E-09
(PID.TID 0000.0001) %MON advcfl_uvel_max              =   6.4220769234217E-04
(PID.TID 0000.0001) %MON advcfl_vvel_max              =   1.0977840033019E-03
(PID.TID 0000.0001) %MON advcfl_wvel_max              =   1.5720628366875E-08
(PID.TID 0000.0001) %MON advcfl_W_hf_max              =   0.0000000000000E+00
(PID.TID 0000.0001) %MON pe_b_mean                    =   1.3104321399822E-07
(PID.TID 0000.0001) %MON ke_max                       =   1.6732997619129E-04
(PID.TID 0000.0001) %MON ke_mean                      =   2.3428866562023E-05
(PID.TID 0000.0001) %MON ke_vol                       =   6.8893493896486E+15
(PID.TID 0000.0001) %MON vort_r_min                   =  -9.1914995991644E-08
(PID.TID 0000.0001) %MON vort_r_max                   =   6.5302345825901E-07
(PID.TID 0000.0001) %MON vort_a_mean                  =   1.0600000000000E-04
(PID.TID 0000.0001) %MON vort_a_sd                    =   3.5186822615382E-06
(PID.TID 0000.0001) %MON vort_p_mean                  =   1.1652272308690E-04
(PID.TID 0000.0001) %MON vort_p_sd                    =   4.1616910862867E-05
(PID.TID 0000.0001) %MON surfExpan_theta_mean         =  -1.7385243861807E-20
(PID.TID 0000.0001) %MON surfExpan_salt_mean          =  -2.6125866901970E-20
(PID.TID 0000.0001) // =======================================================
(PID.TID 0000.0001) // End MONITOR dynamic field statistics
(PID.TID 0000.0001) // =======================================================
 cg2d: Sum(rhs),rhsMax =  -1.13808787422717E-05  3.37554962100118E-02
 cg2d: Sum(rhs),rhsMax =  -1.14430106678658E-05  3.38103918473493E-02
 cg2d: Sum(rhs),rhsMax =  -1.15051941397340E-05  3.38652800636015E-02
 cg2d: Sum(rhs),rhsMax =  -1.15674297624067E-05  3.39201607619521E-02
 cg2d: Sum(rhs),rhsMax =  -1.16297177548477E-05  3.39750338455307E-02
 cg2d: Sum(rhs),rhsMax =  -1.16920583439484E-05  3.40298992174106E-02
 cg2d: Sum(rhs),rhsMax =  -1.17544518220478E-05  3.40847567806135E-02
 cg2d: Sum(rhs),rhsMax =  -1.18168988802458E-05  3.41396064381077E-02
 cg2d: Sum(rhs),rhsMax =  -1.18793994934169E-05  3.41944480928093E-02
 cg2d: Sum(rhs),rhsMax =  -1.19419542524042E-05  3.42492816475823E-02
 cg2d: Sum(rhs),rhsMax =  -1.20045634176870E-05  3.43041070052401E-02
 cg2d: Sum(rhs),rhsMax =  -1.20672272785859E-05  3.43589240685453E-02
 cg2d: Sum(rhs),rhsMax =  -1.21299463812959E-05  3.44137327402103E-02
 cg2d: Sum(rhs),rhsMax =  -1.21927210625615E-05  3.44685329228985E-02
 cg2d: Sum(rhs),rhsMax =  -1.22555514669616E-05  3.45233245192239E-02
 cg2d: Sum(rhs),rhsMax =  -1.23184380383043E-05  3.45781074317531E-02
 cg2d: Sum(rhs),rhsMax =  -1.23813811450969E-05  3.46328815630036E-02
 cg2d: Sum(rhs),rhsMax =  -1.24443811534702E-05  3.46876468154464E-02
 cg2d: Sum(rhs),rhsMax =  -1.25074382834808E-05  3.47424030915056E-02
 cg2d: Sum(rhs),rhsMax =  -1.25705529854629E-05  3.47971502935597E-02
 cg2d: Sum(rhs),rhsMax =  -1.26337256587221E-05  3.48518883239411E-02
 cg2d: Sum(rhs),rhsMax =  -1.26969562221149E-05  3.49066170849368E-02
 cg2d: Sum(rhs),rhsMax =  -1.27602455476522E-05  3.49613364787910E-02
 cg2d: Sum(rhs),rhsMax =  -1.28235936460025E-05  3.50160464077031E-02
 cg2d: Sum(rhs),rhsMax =  -1.28870009903255E-05  3.50707467738282E-02
 cg2d: Sum(rhs),rhsMax =  -1.29504680694038E-05  3.51254374792814E-02
 cg2d: Sum(rhs),rhsMax =  -1.30139948522762E-05  3.51801184261328E-02
 cg2d: Sum(rhs),rhsMax =  -1.30775817859217E-05  3.52347895164126E-02
 cg2d: Sum(rhs),rhsMax =  -1.31412293970894E-05  3.52894506521097E-02
 cg2d: Sum(rhs),rhsMax =  -1.32049377664784E-05  3.53441017351720E-02
 cg2d: Sum(rhs),rhsMax =  -1.32687072598274E-05  3.53987426675084E-02
 cg2d: Sum(rhs),rhsMax =  -1.33325384791688E-05  3.54533733509881E-02
 cg2d: Sum(rhs),rhsMax =  -1.33964313219388E-05  3.55079936874413E-02
 cg2d: Sum(rhs),rhsMax =  -1.34603864428741E-05  3.55626035786597E-02
 cg2d: Sum(rhs),rhsMax =  -1.35244042205156E-05  3.56172029263991E-02
 cg2d: Sum(rhs),rhsMax =  -1.35884844085117E-05  3.56717916323760E-02
 cg2d: Sum(rhs),rhsMax =  -1.36526281519986E-05  3.57263695982719E-02
 cg2d: Sum(rhs),rhsMax =  -1.37168354075526E-05  3.57809367257325E-02
 cg2d: Sum(rhs),rhsMax =  -1.37811061753298E-05  3.58354929163668E-02
 cg2d: Sum(rhs),rhsMax =  -1.38454412174568E-05  3.58900380717497E-02
 cg2d: Sum(rhs),rhsMax =  -1.39098407104868E-05  3.59445720934228E-02
 cg2d: Sum(rhs),rhsMax =  -1.39743048597173E-05  3.59990948828931E-02
 cg2d: Sum(rhs),rhsMax =  -1.40388341323371E-05  3.60536063416338E-02
 cg2d: Sum(rhs),rhsMax =  -1.41034289686363E-05  3.61081063710876E-02
 cg2d: Sum(rhs),rhsMax =  -1.41680893686012E-05  3.61625948726632E-02
 cg2d: Sum(rhs),rhsMax =  -1.42328159420495E-05  3.62170717477391E-02
 cg2d: Sum(rhs),rhsMax =  -1.42976087568018E-05  3.62715368976631E-02
 cg2d: Sum(rhs),rhsMax =  -1.43624684010510E-05  3.63259902237510E-02
 cg2d: Sum(rhs),rhsMax =  -1.44273949796193E-05  3.63804316272911E-02
 cg2d: Sum(rhs),rhsMax =  -1.44923888242589E-05  3.64348610095415E-02
 cg2d: Sum(rhs),rhsMax =  -1.45574504097357E-05  3.64892782717319E-02
 cg2d: Sum(rhs),rhsMax =  -1.46225800384155E-05  3.65436833150635E-02
 cg2d: Sum(rhs),rhsMax =  -1.46877778868862E-05  3.65980760407113E-02
 cg2d: Sum(rhs),rhsMax =  -1.47530443056522E-05  3.66524563498221E-02
 cg2d: Sum(rhs),rhsMax =  -1.48183795977488E-05  3.67068241435169E-02
 cg2d: Sum(rhs),rhsMax =  -1.48837839699101E-05  3.67611793228906E-02
 cg2d: Sum(rhs),rhsMax =  -1.49492579631476E-05  3.68155217890143E-02
 cg2d: Sum(rhs),rhsMax =  -1.50148017660223E-05  3.68698514429323E-02
 cg2d: Sum(rhs),rhsMax =  -1.50804156238103E-05  3.69241681856673E-02
 cg2d: Sum(rhs),rhsMax =  -1.51460999573902E-05  3.69784719182163E-02
 cg2d: Sum(rhs),rhsMax =  -1.52118553692696E-05  3.70327625415547E-02
 cg2d: Sum(rhs),rhsMax =  -1.52776815101896E-05  3.70870399566346E-02
 cg2d: Sum(rhs),rhsMax =  -1.53435791931250E-05  3.71413040643875E-02
 cg2d: Sum(rhs),rhsMax =  -1.54095484911042E-05  3.71955547657227E-02
 cg2d: Sum(rhs),rhsMax =  -1.54755898961537E-05  3.72497919615290E-02
 cg2d: Sum(rhs),rhsMax =  -1.55417036484216E-05  3.73040155526757E-02
 cg2d: Sum(rhs),rhsMax =  -1.56078899448513E-05  3.73582254400115E-02
 cg2d: Sum(rhs),rhsMax =  -1.56741491818962E-05  3.74124215243677E-02
 cg2d: Sum(rhs),rhsMax =  -1.57404818327059E-05  3.74666037065555E-02
 cg2d: Sum(rhs),rhsMax =  -1.58068877023354E-05  3.75207718873693E-02
 cg2d: Sum(rhs),rhsMax =  -1.58733674388602E-05  3.75749259675862E-02
 cg2d: Sum(rhs),rhsMax =  -1.59399215670757E-05  3.76290658479651E-02
(PID.TID 0000.0001)      cg2d_init_res =   1.07903365221314E-02
(PID.TID 0000.0001)      cg2d_iters(min,last) =      -1      91
(PID.TID 0000.0001)      cg2d_last_res =   9.21139978077094E-08
(PID.TID 0000.0001) // =======================================================
(PID.TID 0000.0001) // Begin MONITOR dynamic field statistics
(PID.TID 0000.0001) // =======================================================
(PID.TID 0000.0001) %MON time_tsnumber                =                   720
(PID.TID 0000.0001) %MON time_secondsf                =   8.6400000000000E+05
(PID.TID 0000.0001) %MON dynstat_eta_max              =   2.5297488210687E-02
(PID.TID 0000.0001) %MON dynstat_eta_min              =  -1.7828104610316E-02
(PID.TID 0000.0001) %MON dynstat_eta_mean             =   3.0143441076252E-09
(PID.TID 0000.0001) %MON dynstat_eta_sd               =   1.2446860645821E-02
(PID.TID 0000.0001) %MON dynstat_eta_del2             =   2.5322478005067E-06
(PID.TID 0000.0001) %MON dynstat_uvel_max             =   1.2210736130708E-02
(PID.TID 0000.0001) %MON dynstat_uvel_min             =  -8.2508958648130E-03
(PID.TID 0000.0001) %MON dynstat_uvel_mean            =  -4.5840075024984E-07
(PID.TID 0000.0001) %MON dynstat_uvel_sd              =   5.1759939659918E-03
(PID.TID 0000.0001) %MON dynstat_uvel_del2            =   6.3389931302212E-06
(PID.TID 0000.0001) %MON dynstat_vvel_max             =   2.0617874887115E-02
(PID.TID 0000.0001) %MON dynstat_vvel_min             =  -7.4386505328448E-03
(PID.TID 0000.0001) %MON dynstat_vvel_mean            =   2.6658797726251E-07
(PID.TID 0000.0001) %MON dynstat_vvel_sd              =   5.5745911290165E-03
(PID.TID 0000.0001) %MON dynstat_vvel_del2            =   1.0995544554716E-05
(PID.TID 0000.0001) %MON dynstat_wvel_max             =   3.3259263880973E-08
(PID.TID 0000.0001) %MON dynstat_wvel_min             =  -1.6070011979027E-08
(PID.TID 0000.0001) %MON dynstat_wvel_mean            =  -4.3903835628751E-23
(PID.TID 0000.0001) %MON dynstat_wvel_sd              =   1.4193504673502E-08
(PID.TID 0000.0001) %MON dynstat_wvel_del2            =   4.1485118190951E-12
(PID.TID 0000.0001) %MON dynstat_theta_max            =   2.0000000000000E+01
(PID.TID 0000.0001) %MON dynstat_theta_min            =   2.0000000000000E+01
(PID.TID 0000.0001) %MON dynstat_theta_mean           =   2.0000000000000E+01
(PID.TID 0000.0001) %MON dynstat_theta_sd             =   3.8014036363165E-13
(PID.TID 0000.0001) %MON dynstat_theta_del2           =   0.0000000000000E+00
(PID.TID 0000.0001) %MON dynstat_salt_max             =   3.0000000000000E+01
(PID.TID 0000.0001) %MON dynstat_salt_min             =   3.0000000000000E+01
(PID.TID 0000.0001) %MON dynstat_salt_mean            =   2.9999999999999E+01
(PID.TID 0000.0001) %MON dynstat_salt_sd              =   5.5777604757167E-13
(PID.TID 0000.0001) %MON dynstat_salt_del2            =   0.0000000000000E+00
(PID.TID 0000.0001) %MON trAdv_CFL_u_max              =   7.3104419895108E-04
(PID.TID 0000.0001) %MON trAdv_CFL_v_max              =   1.2351437465177E-03
(PID.TID 0000.0001) %MON trAdv_CFL_w_max              =   8.6193688350807E-09
(PID.TID 0000.0001) %MON advcfl_uvel_max              =   7.3264416784248E-04
(PID.TID 0000.0001) %MON advcfl_vvel_max              =   1.2370724932269E-03
(PID.TID 0000.0001) %MON advcfl_wvel_max              =   1.5964446662867E-08
(PID.TID 0000.0001) %MON advcfl_W_hf_max              =   0.0000000000000E+00
(PID.TID 0000.0001) %MON pe_b_mean                    =   1.5883380794763E-07
(PID.TID 0000.0001) %MON ke_max                       =   2.1221307090024E-04
(PID.TID 0000.0001) %MON ke_mean                      =   2.8401443197093E-05
(PID.TID 0000.0001) %MON ke_vol                       =   6.8893493896486E+15
(PID.TID 0000.0001) %MON vort_r_min                   =  -1.0797147689656E-07
(PID.TID 0000.0001) %MON vort_r_max                   =   7.2003530168140E-07
(PID.TID 0000.0001) %MON vort_a_mean                  =   1.0600000000000E-04
(PID.TID 0000.0001) %MON vort_a_sd                    =   3.5188802013602E-06
(PID.TID 0000.0001) %MON vort_p_mean                  =   1.1652272308690E-04
(PID.TID 0000.0001) %MON vort_p_sd                    =   4.1624269670569E-05
(PID.TID 0000.0001) %MON surfExpan_theta_mean         =  -7.5981690075524E-22
(PID.TID 0000.0001) %MON surfExpan_salt_mean          =  -1.1349933338857E-21
(PID.TID 0000.0001) // =======================================================
(PID.TID 0000.0001) // End MONITOR dynamic field statistics
(PID.TID 0000.0001) // =======================================================
 cg2d: Sum(rhs),rhsMax =  -1.60065500613947E-05  3.76831914292518E-02
 cg2d: Sum(rhs),rhsMax =  -1.60732532448887E-05  3.77373026121733E-02
 cg2d: Sum(rhs),rhsMax =  -1.61400318344947E-05  3.77913992974432E-02
 cg2d: Sum(rhs),rhsMax =  -1.62068855277010E-05  3.78454813857604E-02
 cg2d: Sum(rhs),rhsMax =  -1.62738148692457E-05  3.78995487778106E-02
 cg2d: Sum(rhs),rhsMax =  -1.63408203919559E-05  3.79536013742649E-02
 cg2d: Sum(rhs),rhsMax =  -1.64079021057403E-05  3.80076390757825E-02
 cg2d: Sum(rhs),rhsMax =  -1.64750604492968E-05  3.80616617830096E-02
 cg2d: Sum(rhs),rhsMax =  -1.65422956883779E-05  3.81156693965815E-02
 cg2d: Sum(rhs),rhsMax =  -1.66096082964869E-05  3.81696618171223E-02
 cg2d: Sum(rhs),rhsMax =  -1.66769982969071E-05  3.82236389452460E-02
 cg2d: Sum(rhs),rhsMax =  -1.67444661058752E-05  3.82776006815557E-02
 cg2d: Sum(rhs),rhsMax =  -1.68120120871348E-05  3.83315469266448E-02
 cg2d: Sum(rhs),rhsMax =  -1.68796365766777E-05  3.83854775811004E-02
 cg2d: Sum(rhs),rhsMax =  -1.69473397740802E-05  3.84393925454979E-02
 cg2d: Sum(rhs),rhsMax =  -1.70151218655962E-05  3.84932917204074E-02
 cg2d: Sum(rhs),rhsMax =  -1.70829832999569E-05  3.85471750063918E-02
 cg2d: Sum(rhs),rhsMax =  -1.71509247767106E-05  3.86010423040055E-02
 cg2d: Sum(rhs),rhsMax =  -1.72189459430420E-05  3.86548935137990E-02
 cg2d: Sum(rhs),rhsMax =  -1.72870473096332E-05  3.87087285363164E-02
 cg2d: Sum(rhs),rhsMax =  -1.73552293571862E-05  3.87625472720975E-02
 cg2d: Sum(rhs),rhsMax =  -1.74232418491717E-05  3.88169075033978E-02
 cg2d: Sum(rhs),rhsMax =  -1.74912750189361E-05  3.88713825604947E-02
 cg2d: Sum(rhs),rhsMax =  -1.75593870435850E-05  3.89258436554292E-02
 cg2d: Sum(rhs),rhsMax =  -1.76275781888363E-05  3.89802906899245E-02
 cg2d: Sum(rhs),rhsMax =  -1.76958486864283E-05  3.90347235656907E-02
 cg2d: Sum(rhs),rhsMax =  -1.77641986754719E-05  3.90891421844227E-02
 cg2d: Sum(rhs),rhsMax =  -1.78326285532049E-05  3.91435464478026E-02
 cg2d: Sum(rhs),rhsMax =  -1.79011389463447E-05  3.91979362575011E-02
 cg2d: Sum(rhs),rhsMax =  -1.79697296074297E-05  3.92523115151736E-02
 cg2d: Sum(rhs),rhsMax =  -1.80384010470928E-05  3.93066721224670E-02
 cg2d: Sum(rhs),rhsMax =  -1.81071537587382E-05  3.93610179810170E-02
 cg2d: Sum(rhs),rhsMax =  -1.81759877773101E-05  3.94153489924466E-02
 cg2d: Sum(rhs),rhsMax =  -1.82449034369786E-05  3.94696650583709E-02
 cg2d: Sum(rhs),rhsMax =  -1.83139011890252E-05  3.95239660803947E-02
 cg2d: Sum(rhs),rhsMax =  -1.83829812906051E-05  3.95782519601140E-02
 cg2d: Sum(rhs),rhsMax =  -1.84521438502463E-05  3.96325225991166E-02
 cg2d: Sum(rhs),rhsMax =  -1.85213894959534E-05  3.96867778989825E-02
 cg2d: Sum(rhs),rhsMax =  -1.85907181514400E-05  3.97410177612847E-02
 cg2d: Sum(rhs),rhsMax =  -1.86601302621797E-05  3.97952420875884E-02
 cg2d: Sum(rhs),rhsMax =  -1.87296262238734E-05  3.98494507794539E-02
 cg2d: Sum(rhs),rhsMax =  -1.87992062902660E-05  3.99036437384359E-02
 cg2d: Sum(rhs),rhsMax =  -1.88688707293931E-05  3.99578208660826E-02
 cg2d: Sum(rhs),rhsMax =  -1.89386199363518E-05  4.00119820639392E-02
 cg2d: Sum(rhs),rhsMax =  -1.90084540998975E-05  4.00661272335459E-02
 cg2d: Sum(rhs),rhsMax =  -1.90783733325199E-05  4.01202562764400E-02
 cg2d: Sum(rhs),rhsMax =  -1.91483784612589E-05  4.01743690941552E-02
 cg2d: Sum(rhs),rhsMax =  -1.92184693413103E-05  4.02284655882236E-02
 cg2d: Sum(rhs),rhsMax =  -1.92886465643707E-05  4.02825456601756E-02
 cg2d: Sum(rhs),rhsMax =  -1.93589102676917E-05  4.03366092115392E-02
 cg2d: Sum(rhs),rhsMax =  -1.94292606138756E-05  4.03906561438423E-02
 cg2d: Sum(rhs),rhsMax =  -1.94996980644978E-05  4.04446863586126E-02
 cg2d: Sum(rhs),rhsMax =  -1.95702230384454E-05  4.04986997573783E-02
 cg2d: Sum(rhs),rhsMax =  -1.96408356122925E-05  4.05526962416676E-02
 cg2d: Sum(rhs),rhsMax =  -1.97115363878390E-05  4.06066757130109E-02
 cg2d: Sum(rhs),rhsMax =  -1.97823251812911E-05  4.06606380729403E-02
 cg2d: Sum(rhs),rhsMax =  -1.98532025142938E-05  4.07145832229902E-02
 cg2d: Sum(rhs),rhsMax =  -1.99241689475584E-05  4.07685110646992E-02
 cg2d: Sum(rhs),rhsMax =  -1.99952247293099E-05  4.08224214996071E-02
 cg2d: Sum(rhs),rhsMax =  -2.00663697917207E-05  4.08763144292594E-02
 cg2d: Sum(rhs),rhsMax =  -2.01376047694428E-05  4.09301897552059E-02
 cg2d: Sum(rhs),rhsMax =  -2.02089298788725E-05  4.09840473790023E-02
 cg2d: Sum(rhs),rhsMax =  -2.02803454604321E-05  4.10378872022081E-02
 cg2d: Sum(rhs),rhsMax =  -2.03518518952645E-05  4.10917091263904E-02
 cg2d: Sum(rhs),rhsMax =  -2.04234492429643E-05  4.11455130531240E-02
 cg2d: Sum(rhs),rhsMax =  -2.04951379330076E-05  4.11992988839895E-02
 cg2d: Sum(rhs),rhsMax =  -2.05669184666912E-05  4.12530665205748E-02
 cg2d: Sum(rhs),rhsMax =  -2.06387909057748E-05  4.13068158644782E-02
 cg2d: Sum(rhs),rhsMax =  -2.07107555541680E-05  4.13605468173046E-02
 cg2d: Sum(rhs),rhsMax =  -2.07828130608760E-05  4.14142592806710E-02
 cg2d: Sum(rhs),rhsMax =  -2.08549633783778E-05  4.14679531562021E-02
 cg2d: Sum(rhs),rhsMax =  -2.09272070376409E-05  4.15216283455343E-02
(PID.TID 0000.0001)      cg2d_init_res =   9.78289566155678E-03
(PID.TID 0000.0001)      cg2d_iters(min,last) =      -1      91
(PID.TID 0000.0001)      cg2d_last_res =   8.62239929248364E-08
(PID.TID 0000.0001) // =======================================================
(PID.TID 0000.0001) // Begin MONITOR dynamic field statistics
(PID.TID 0000.0001) // =======================================================
(PID.TID 0000.0001) %MON time_tsnumber                =                   792
(PID.TID 0000.0001) %MON time_secondsf                =   9.5040000000000E+05
(PID.TID 0000.0001) %MON dynstat_eta_max              =   2.7817186922427E-02
(PID.TID 0000.0001) %MON dynstat_eta_min              =  -1.9102042722864E-02
(PID.TID 0000.0001) %MON dynstat_eta_mean             =   4.3630733322281E-09
(PID.TID 0000.0001) %MON dynstat_eta_sd               =   1.3557987390758E-02
(PID.TID 0000.0001) %MON dynstat_eta_del2             =   2.8741782710504E-06
(PID.TID 0000.0001) %MON dynstat_uvel_max             =   1.3782481997526E-02
(PID.TID 0000.0001) %MON dynstat_uvel_min             =  -8.6743322740567E-03
(PID.TID 0000.0001) %MON dynstat_uvel_mean            =  -4.5694940252269E-07
(PID.TID 0000.0001) %MON dynstat_uvel_sd              =   5.6232798398512E-03
(PID.TID 0000.0001) %MON dynstat_uvel_del2            =   7.0131478785643E-06
(PID.TID 0000.0001) %MON dynstat_vvel_max             =   2.2917141535985E-02
(PID.TID 0000.0001) %MON dynstat_vvel_min             =  -7.6673770741372E-03
(PID.TID 0000.0001) %MON dynstat_vvel_mean            =   3.1257492345394E-07
(PID.TID 0000.0001) %MON dynstat_vvel_sd              =   6.0895987764852E-03
(PID.TID 0000.0001) %MON dynstat_vvel_del2            =   1.2458606927232E-05
(PID.TID 0000.0001) %MON dynstat_wvel_max             =   3.3728571380707E-08
(PID.TID 0000.0001) %MON dynstat_wvel_min             =  -1.5355013747467E-08
(PID.TID 0000.0001) %MON dynstat_wvel_mean            =   1.0633710998162E-22
(PID.TID 0000.0001) %MON dynstat_wvel_sd              =   1.4034372129206E-08
(PID.TID 0000.0001) %MON dynstat_wvel_del2            =   4.2904107146509E-12
(PID.TID 0000.0001) %MON dynstat_theta_max            =   2.0000000000000E+01
(PID.TID 0000.0001) %MON dynstat_theta_min            =   2.0000000000000E+01
(PID.TID 0000.0001) %MON dynstat_theta_mean           =   2.0000000000000E+01
(PID.TID 0000.0001) %MON dynstat_theta_sd             =   3.8014036363165E-13
(PID.TID 0000.0001) %MON dynstat_theta_del2           =   0.0000000000000E+00
(PID.TID 0000.0001) %MON dynstat_salt_max             =   3.0000000000000E+01
(PID.TID 0000.0001) %MON dynstat_salt_min             =   3.0000000000000E+01
(PID.TID 0000.0001) %MON dynstat_salt_mean            =   2.9999999999999E+01
(PID.TID 0000.0001) %MON dynstat_salt_sd              =   5.5777604757167E-13
(PID.TID 0000.0001) %MON dynstat_salt_del2            =   0.0000000000000E+00
(PID.TID 0000.0001) %MON trAdv_CFL_u_max              =   8.2525525955344E-04
(PID.TID 0000.0001) %MON trAdv_CFL_v_max              =   1.3731280465331E-03
(PID.TID 0000.0001) %MON trAdv_CFL_w_max              =   8.7137621060823E-09
(PID.TID 0000.0001) %MON advcfl_uvel_max              =   8.2694891985155E-04
(PID.TID 0000.0001) %MON advcfl_vvel_max              =   1.3750284921591E-03
(PID.TID 0000.0001) %MON advcfl_wvel_max              =   1.6189714262739E-08
(PID.TID 0000.0001) %MON advcfl_W_hf_max              =   0.0000000000000E+00
(PID.TID 0000.0001) %MON pe_b_mean                    =   1.8845763850539E-07
(PID.TID 0000.0001) %MON ke_max                       =   2.6252836824953E-04
(PID.TID 0000.0001) %MON ke_mean                      =   3.3720554619866E-05
(PID.TID 0000.0001) %MON ke_vol                       =   6.8893493896486E+15
(PID.TID 0000.0001) %MON vort_r_min                   =  -1.2486668303710E-07
(PID.TID 0000.0001) %MON vort_r_max                   =   7.8449292833476E-07
(PID.TID 0000.0001) %MON vort_a_mean                  =   1.0600000000000E-04
(PID.TID 0000.0001) %MON vort_a_sd                    =   3.5190966856213E-06
(PID.TID 0000.0001) %MON vort_p_mean                  =   1.1652272308690E-04
(PID.TID 0000.0001) %MON vort_p_sd                    =   4.1631123783640E-05
(PID.TID 0000.0001) %MON surfExpan_theta_mean         =   2.2427886708303E-21
(PID.TID 0000.0001) %MON surfExpan_salt_mean          =   3.3259715969002E-21
(PID.TID 0000.0001) // =======================================================
(PID.TID 0000.0001) // End MONITOR dynamic field statistics
(PID.TID 0000.0001) // =======================================================
 cg2d: Sum(rhs),rhsMax =  -2.09995441497780E-05  4.15752847503153E-02
 cg2d: Sum(rhs),rhsMax =  -2.10719753038560E-05  4.16289222722030E-02
 cg2d: Sum(rhs),rhsMax =  -2.11445005652323E-05  4.16825408128692E-02
 cg2d: Sum(rhs),rhsMax =  -2.12171201781110E-05  4.17361402739974E-02
 cg2d: Sum(rhs),rhsMax =  -2.12898347153254E-05  4.17897205572841E-02
 cg2d: Sum(rhs),rhsMax =  -2.13626442744398E-05  4.18432815644396E-02
 cg2d: Sum(rhs),rhsMax =  -2.14355494199958E-05  4.18968231971897E-02
 cg2d: Sum(rhs),rhsMax =  -2.15085503701869E-05  4.19503453572738E-02
 cg2d: Sum(rhs),rhsMax =  -2.15816475768876E-05  4.20038479464469E-02
 cg2d: Sum(rhs),rhsMax =  -2.16548410651649E-05  4.20573308664803E-02
 cg2d: Sum(rhs),rhsMax =  -2.17281313075919E-05  4.21107940191610E-02
 cg2d: Sum(rhs),rhsMax =  -2.18015187356431E-05  4.21642373062932E-02
 cg2d: Sum(rhs),rhsMax =  -2.18750034848246E-05  4.22176606296997E-02
 cg2d: Sum(rhs),rhsMax =  -2.19485859290700E-05  4.22710638912197E-02
 cg2d: Sum(rhs),rhsMax =  -2.20222665696483E-05  4.23244469927120E-02
 cg2d: Sum(rhs),rhsMax =  -2.20960454811701E-05  4.23778098360540E-02
 cg2d: Sum(rhs),rhsMax =  -2.21699232274171E-05  4.24311523231427E-02
 cg2d: Sum(rhs),rhsMax =  -2.22438998351594E-05  4.24844743558957E-02
 cg2d: Sum(rhs),rhsMax =  -2.23179759272739E-05  4.25377758362519E-02
 cg2d: Sum(rhs),rhsMax =  -2.23921518027990E-05  4.25910566661694E-02
 cg2d: Sum(rhs),rhsMax =  -2.24664275015329E-05  4.26443167476299E-02
 cg2d: Sum(rhs),rhsMax =  -2.25408036564623E-05  4.26975559826371E-02
 cg2d: Sum(rhs),rhsMax =  -2.26152804940864E-05  4.27507742732165E-02
 cg2d: Sum(rhs),rhsMax =  -2.26898583342017E-05  4.28039715214178E-02
 cg2d: Sum(rhs),rhsMax =  -2.27645376720577E-05  4.28571476293159E-02
 cg2d: Sum(rhs),rhsMax =  -2.28393189367418E-05  4.29103024990069E-02
 cg2d: Sum(rhs),rhsMax =  -2.29142021436687E-05  4.29634360326150E-02
 cg2d: Sum(rhs),rhsMax =  -2.29891876381873E-05  4.30165481322874E-02
 cg2d: Sum(rhs),rhsMax =  -2.30642758620517E-05  4.30696387001998E-02
 cg2d: Sum(rhs),rhsMax =  -2.31394673228455E-05  4.31227076385523E-02
 cg2d: Sum(rhs),rhsMax =  -2.32147622044356E-05  4.31757548495735E-02
 cg2d: Sum(rhs),rhsMax =  -2.32901608877879E-05  4.32287802355195E-02
 cg2d: Sum(rhs),rhsMax =  -2.33656637262311E-05  4.32817836986726E-02
 cg2d: Sum(rhs),rhsMax =  -2.34412709642536E-05  4.33347651413461E-02
 cg2d: Sum(rhs),rhsMax =  -2.35169831764512E-05  4.33877244658836E-02
 cg2d: Sum(rhs),rhsMax =  -2.35928004749669E-05  4.34406615746541E-02
 cg2d: Sum(rhs),rhsMax =  -2.36687235221390E-05  4.34935763700604E-02
 cg2d: Sum(rhs),rhsMax =  -2.37447522712479E-05  4.35464687545346E-02
 cg2d: Sum(rhs),rhsMax =  -2.38208873018300E-05  4.35993386305404E-02
 cg2d: Sum(rhs),rhsMax =  -2.38971291603787E-05  4.36521859005749E-02
 cg2d: Sum(rhs),rhsMax =  -2.39734776873377E-05  4.37050104671652E-02
 cg2d: Sum(rhs),rhsMax =  -2.40499336646889E-05  4.37578122328724E-02
 cg2d: Sum(rhs),rhsMax =  -2.41264973000269E-05  4.38105911002909E-02
 cg2d: Sum(rhs),rhsMax =  -2.42031691006298E-05  4.38633469720496E-02
 cg2d: Sum(rhs),rhsMax =  -2.42799492468672E-05  4.39160797508117E-02
 cg2d: Sum(rhs),rhsMax =  -2.43568383715559E-05  4.39687893392739E-02
 cg2d: Sum(rhs),rhsMax =  -2.44338364871373E-05  4.40214756401709E-02
 cg2d: Sum(rhs),rhsMax =  -2.45109442528965E-05  4.40741385562722E-02
 cg2d: Sum(rhs),rhsMax =  -2.45881619411609E-05  4.41267779903836E-02
 cg2d: Sum(rhs),rhsMax =  -2.46654898642985E-05  4.41793938453488E-02
 cg2d: Sum(rhs),rhsMax =  -2.47429284112761E-05  4.42319860240480E-02
 cg2d: Sum(rhs),rhsMax =  -2.48204781393493E-05  4.42845544294022E-02
 cg2d: Sum(rhs),rhsMax =  -2.48981392567127E-05  4.43370989643669E-02
 cg2d: Sum(rhs),rhsMax =  -2.49759123034203E-05  4.43896195319411E-02
 cg2d: Sum(rhs),rhsMax =  -2.50537975146140E-05  4.44421160351613E-02
 cg2d: Sum(rhs),rhsMax =  -2.51317950306605E-05  4.44945883771048E-02
 cg2d: Sum(rhs),rhsMax =  -2.52099059032188E-05  4.45470364608885E-02
 cg2d: Sum(rhs),rhsMax =  -2.52881298445501E-05  4.45994601896729E-02
 cg2d: Sum(rhs),rhsMax =  -2.53664676676396E-05  4.46518594666585E-02
 cg2d: Sum(rhs),rhsMax =  -2.54449197700582E-05  4.47042341950895E-02
 cg2d: Sum(rhs),rhsMax =  -2.55234861698747E-05  4.47565842782512E-02
 cg2d: Sum(rhs),rhsMax =  -2.56021675479855E-05  4.48089096194759E-02
 cg2d: Sum(rhs),rhsMax =  -2.56809641377247E-05  4.48612101221347E-02
 cg2d: Sum(rhs),rhsMax =  -2.57598766457631E-05  4.49134856896473E-02
 cg2d: Sum(rhs),rhsMax =  -2.58389053098065E-05  4.49657362254766E-02
 cg2d: Sum(rhs),rhsMax =  -2.59180503141276E-05  4.50179616331319E-02
 cg2d: Sum(rhs),rhsMax =  -2.59973122699528E-05  4.50701618161673E-02
 cg2d: Sum(rhs),rhsMax =  -2.60766917497615E-05  4.51223366781852E-02
 cg2d: Sum(rhs),rhsMax =  -2.61561888645484E-05  4.51744861228334E-02
 cg2d: Sum(rhs),rhsMax =  -2.62358041993073E-05  4.52266100538076E-02
 cg2d: Sum(rhs),rhsMax =  -2.63155379662261E-05  4.52787083748530E-02
 cg2d: Sum(rhs),rhsMax =  -2.63953909303005E-05  4.53307809897618E-02
(PID.TID 0000.0001)      cg2d_init_res =   8.93921333598412E-03
(PID.TID 0000.0001)      cg2d_iters(min,last) =      -1      91
(PID.TID 0000.0001)      cg2d_last_res =   8.04833252628273E-08
(PID.TID 0000.0001) // =======================================================
(PID.TID 0000.0001) // Begin MONITOR dynamic field statistics
(PID.TID 0000.0001) // =======================================================
(PID.TID 0000.0001) %MON time_tsnumber                =                   864
(PID.TID 0000.0001) %MON time_secondsf                =   1.0368000000000E+06
(PID.TID 0000.0001) %MON dynstat_eta_max              =   3.0310161850783E-02
(PID.TID 0000.0001) %MON dynstat_eta_min              =  -2.0292717491540E-02
(PID.TID 0000.0001) %MON dynstat_eta_mean             =   6.0045559270732E-09
(PID.TID 0000.0001) %MON dynstat_eta_sd               =   1.4638118848999E-02
(PID.TID 0000.0001) %MON dynstat_eta_del2             =   3.2253918500831E-06
(PID.TID 0000.0001) %MON dynstat_uvel_max             =   1.5423414492680E-02
(PID.TID 0000.0001) %MON dynstat_uvel_min             =  -9.0227020827320E-03
(PID.TID 0000.0001) %MON dynstat_uvel_mean            =  -4.4675384765465E-07
(PID.TID 0000.0001) %MON dynstat_uvel_sd              =   6.0622602304094E-03
(PID.TID 0000.0001) %MON dynstat_uvel_del2            =   7.6742580144321E-06
(PID.TID 0000.0001) %MON dynstat_vvel_max             =   2.5201995129985E-02
(PID.TID 0000.0001) %MON dynstat_vvel_min             =  -7.9061567019262E-03
(PID.TID 0000.0001) %MON dynstat_vvel_mean            =   3.5629943571972E-07
(PID.TID 0000.0001) %MON dynstat_vvel_sd              =   6.5897009057596E-03
(PID.TID 0000.0001) %MON dynstat_vvel_del2            =   1.3931377767653E-05
(PID.TID 0000.0001) %MON dynstat_wvel_max             =   3.4104080838442E-08
(PID.TID 0000.0001) %MON dynstat_wvel_min             =  -1.4717220751336E-08
(PID.TID 0000.0001) %MON dynstat_wvel_mean            =   1.4033346613158E-21
(PID.TID 0000.0001) %MON dynstat_wvel_sd              =   1.3870496803485E-08
(PID.TID 0000.0001) %MON dynstat_wvel_del2            =   4.4171061307737E-12
(PID.TID 0000.0001) %MON dynstat_theta_max            =   2.0000000000000E+01
(PID.TID 0000.0001) %MON dynstat_theta_min            =   2.0000000000000E+01
(PID.TID 0000.0001) %MON dynstat_theta_mean           =   2.0000000000000E+01
(PID.TID 0000.0001) %MON dynstat_theta_sd             =   3.8014036363165E-13
(PID.TID 0000.0001) %MON dynstat_theta_del2           =   0.0000000000000E+00
(PID.TID 0000.0001) %MON dynstat_salt_max             =   3.0000000000000E+01
(PID.TID 0000.0001) %MON dynstat_salt_min             =   3.0000000000000E+01
(PID.TID 0000.0001) %MON dynstat_salt_mean            =   2.9999999999999E+01
(PID.TID 0000.0001) %MON dynstat_salt_sd              =   5.5777604757167E-13
(PID.TID 0000.0001) %MON dynstat_salt_del2            =   0.0000000000000E+00
(PID.TID 0000.0001) %MON trAdv_CFL_u_max              =   9.2356343923166E-04
(PID.TID 0000.0001) %MON trAdv_CFL_v_max              =   1.5102338332552E-03
(PID.TID 0000.0001) %MON trAdv_CFL_w_max              =   8.7871664898394E-09
(PID.TID 0000.0001) %MON advcfl_uvel_max              =   9.2540486956082E-04
(PID.TID 0000.0001) %MON advcfl_vvel_max              =   1.5121197077991E-03
(PID.TID 0000.0001) %MON advcfl_wvel_max              =   1.6369958802452E-08
(PID.TID 0000.0001) %MON advcfl_W_hf_max              =   0.0000000000000E+00
(PID.TID 0000.0001) %MON pe_b_mean                    =   2.1968167505302E-07
(PID.TID 0000.0001) %MON ke_max                       =   3.1715175056521E-04
(PID.TID 0000.0001) %MON ke_mean                      =   3.9350423633840E-05
(PID.TID 0000.0001) %MON ke_vol                       =   6.8893493896486E+15
(PID.TID 0000.0001) %MON vort_r_min                   =  -1.4244406319129E-07
(PID.TID 0000.0001) %MON vort_r_max                   =   8.4698268550924E-07
(PID.TID 0000.0001) %MON vort_a_mean                  =   1.0600000000000E-04
(PID.TID 0000.0001) %MON vort_a_sd                    =   3.5193309162268E-06
(PID.TID 0000.0001) %MON vort_p_mean                  =   1.1652272308690E-04
(PID.TID 0000.0001) %MON vort_p_sd                    =   4.1637541654015E-05
(PID.TID 0000.0001) %MON surfExpan_theta_mean         =   2.8048437646551E-20
(PID.TID 0000.0001) %MON surfExpan_salt_mean          =   4.2131710466088E-20
(PID.TID 0000.0001) // =======================================================
(PID.TID 0000.0001) // End MONITOR dynamic field statistics
(PID.TID 0000.0001) // =======================================================
 cg2d: Sum(rhs),rhsMax =  -2.64753632558123E-05  4.53828278023763E-02
 cg2d: Sum(rhs),rhsMax =  -2.65554553839087E-05  4.54348487165883E-02
 cg2d: Sum(rhs),rhsMax =  -2.66356678177392E-05  4.54868436363386E-02
 cg2d: Sum(rhs),rhsMax =  -2.67160011592285E-05  4.55388124656206E-02
 cg2d: Sum(rhs),rhsMax =  -2.67964553577506E-05  4.55907551084789E-02
 cg2d: Sum(rhs),rhsMax =  -2.68770311694193E-05  4.56426714690082E-02
 cg2d: Sum(rhs),rhsMax =  -2.69577290948654E-05  4.56945614513558E-02
 cg2d: Sum(rhs),rhsMax =  -2.70385493093446E-05  4.57464249597233E-02
 cg2d: Sum(rhs),rhsMax =  -2.71194926222476E-05  4.57982618983646E-02
 cg2d: Sum(rhs),rhsMax =  -2.72005591055481E-05  4.58500721715863E-02
 cg2d: Sum(rhs),rhsMax =  -2.72817492840589E-05  4.59018556837519E-02
 cg2d: Sum(rhs),rhsMax =  -2.73630637297670E-05  4.59536123392774E-02
 cg2d: Sum(rhs),rhsMax =  -2.74445030438789E-05  4.60053420426361E-02
 cg2d: Sum(rhs),rhsMax =  -2.75260671570160E-05  4.60570446983546E-02
 cg2d: Sum(rhs),rhsMax =  -2.76077568564306E-05  4.61087202110189E-02
 cg2d: Sum(rhs),rhsMax =  -2.76895726957944E-05  4.61603684852691E-02
 cg2d: Sum(rhs),rhsMax =  -2.77715148378349E-05  4.62119894258058E-02
 cg2d: Sum(rhs),rhsMax =  -2.78535839271232E-05  4.62635829373847E-02
 cg2d: Sum(rhs),rhsMax =  -2.79357803724539E-05  4.63151489248213E-02
 cg2d: Sum(rhs),rhsMax =  -2.80181045605767E-05  4.63666872929901E-02
 cg2d: Sum(rhs),rhsMax =  -2.81005571051290E-05  4.64181979468243E-02
 cg2d: Sum(rhs),rhsMax =  -2.81831383756835E-05  4.64696807913188E-02
 cg2d: Sum(rhs),rhsMax =  -2.82658492196282E-05  4.65211357315265E-02
 cg2d: Sum(rhs),rhsMax =  -2.83486894901916E-05  4.65725626725628E-02
 cg2d: Sum(rhs),rhsMax =  -2.84316602345396E-05  4.66239615196051E-02
 cg2d: Sum(rhs),rhsMax =  -2.85147616548125E-05  4.66753321778925E-02
 cg2d: Sum(rhs),rhsMax =  -2.85979939510829E-05  4.67266745527253E-02
 cg2d: Sum(rhs),rhsMax =  -2.86813580712593E-05  4.67779885494686E-02
 cg2d: Sum(rhs),rhsMax =  -2.87648542461535E-05  4.68292740735497E-02
 cg2d: Sum(rhs),rhsMax =  -2.88484831715632E-05  4.68805310304615E-02
 cg2d: Sum(rhs),rhsMax =  -2.89322453730714E-05  4.69317593257603E-02
 cg2d: Sum(rhs),rhsMax =  -2.90161409741349E-05  4.69829588650675E-02
 cg2d: Sum(rhs),rhsMax =  -2.91001708566906E-05  4.70341295540708E-02
 cg2d: Sum(rhs),rhsMax =  -2.91843353372699E-05  4.70852712985231E-02
 cg2d: Sum(rhs),rhsMax =  -2.92686349683789E-05  4.71363840042452E-02
 cg2d: Sum(rhs),rhsMax =  -2.93530703027525E-05  4.71874675771235E-02
 cg2d: Sum(rhs),rhsMax =  -2.94376418375868E-05  4.72385219231139E-02
 cg2d: Sum(rhs),rhsMax =  -2.95223496920259E-05  4.72895469482380E-02
 cg2d: Sum(rhs),rhsMax =  -2.96071950139608E-05  4.73405425585881E-02
 cg2d: Sum(rhs),rhsMax =  -2.96915905159817E-05  4.73924464781187E-02
 cg2d: Sum(rhs),rhsMax =  -2.97761003819966E-05  4.74443556006165E-02
 cg2d: Sum(rhs),rhsMax =  -2.98607450491019E-05  4.74962378705940E-02
 cg2d: Sum(rhs),rhsMax =  -2.99455250161382E-05  4.75480931941083E-02
 cg2d: Sum(rhs),rhsMax =  -3.00304411834859E-05  4.75999214772757E-02
 cg2d: Sum(rhs),rhsMax =  -3.01154934772251E-05  4.76517226262672E-02
 cg2d: Sum(rhs),rhsMax =  -3.02006828204679E-05  4.77034965473143E-02
 cg2d: Sum(rhs),rhsMax =  -3.02860095527276E-05  4.77552431467031E-02
 cg2d: Sum(rhs),rhsMax =  -3.03714743880266E-05  4.78069623307813E-02
 cg2d: Sum(rhs),rhsMax =  -3.04570776567224E-05  4.78586540059548E-02
 cg2d: Sum(rhs),rhsMax =  -3.05428200892445E-05  4.79103180786869E-02
 cg2d: Sum(rhs),rhsMax =  -3.06287018930207E-05  4.79619544555050E-02
 cg2d: Sum(rhs),rhsMax =  -3.07147241038648E-05  4.80135630429926E-02
 cg2d: Sum(rhs),rhsMax =  -3.08008871126968E-05  4.80651437477978E-02
 cg2d: Sum(rhs),rhsMax =  -3.08871912993065E-05  4.81166964766282E-02
 cg2d: Sum(rhs),rhsMax =  -3.09736373448853E-05  4.81682211362534E-02
 cg2d: Sum(rhs),rhsMax =  -3.10602258676539E-05  4.82197176335069E-02
 cg2d: Sum(rhs),rhsMax =  -3.11469572141509E-05  4.82711858752838E-02
 cg2d: Sum(rhs),rhsMax =  -3.12338322324170E-05  4.83226257685431E-02
 cg2d: Sum(rhs),rhsMax =  -3.13872723201915E-05  4.83740372582975E-02
 cg2d: Sum(rhs),rhsMax =  -3.15409091658399E-05  4.84254201719813E-02
 cg2d: Sum(rhs),rhsMax =  -3.16947189784693E-05  4.84767744588872E-02
 cg2d: Sum(rhs),rhsMax =  -3.18487103269753E-05  4.85281000273375E-02
 cg2d: Sum(rhs),rhsMax =  -3.20028845513312E-05  4.85793967828531E-02
 cg2d: Sum(rhs),rhsMax =  -3.21572428488848E-05  4.86306646326415E-02
 cg2d: Sum(rhs),rhsMax =  -3.23117862968368E-05  4.86819034844043E-02
 cg2d: Sum(rhs),rhsMax =  -3.24665157630140E-05  4.87331132457436E-02
 cg2d: Sum(rhs),rhsMax =  -3.26214322098409E-05  4.87842938241758E-02
 cg2d: Sum(rhs),rhsMax =  -3.27765370360424E-05  4.88354451272638E-02
 cg2d: Sum(rhs),rhsMax =  -3.29318309491775E-05  4.88865670626781E-02
 cg2d: Sum(rhs),rhsMax =  -3.30873149754218E-05  4.89376595381874E-02
 cg2d: Sum(rhs),rhsMax =  -3.32429904127511E-05  4.89887224616362E-02
 cg2d: Sum(rhs),rhsMax =  -3.33988581230210E-05  4.90397557409351E-02
(PID.TID 0000.0001)      cg2d_init_res =   8.21902315346106E-03
(PID.TID 0000.0001)      cg2d_iters(min,last) =      -1      90
(PID.TID 0000.0001)      cg2d_last_res =   9.83825035526044E-08
(PID.TID 0000.0001) // =======================================================
(PID.TID 0000.0001) // Begin MONITOR dynamic field statistics
(PID.TID 0000.0001) // =======================================================
(PID.TID 0000.0001) %MON time_tsnumber                =                   936
(PID.TID 0000.0001) %MON time_secondsf                =   1.1232000000000E+06
(PID.TID 0000.0001) %MON dynstat_eta_max              =   3.2800091349568E-02
(PID.TID 0000.0001) %MON dynstat_eta_min              =  -2.1403700560116E-02
(PID.TID 0000.0001) %MON dynstat_eta_mean             =   8.2319620511638E-09
(PID.TID 0000.0001) %MON dynstat_eta_sd               =   1.5686729093337E-02
(PID.TID 0000.0001) %MON dynstat_eta_del2             =   3.5843079892213E-06
(PID.TID 0000.0001) %MON dynstat_uvel_max             =   1.7129753141055E-02
(PID.TID 0000.0001) %MON dynstat_uvel_min             =  -9.2922730212279E-03
(PID.TID 0000.0001) %MON dynstat_uvel_mean            =  -4.2859842719550E-07
(PID.TID 0000.0001) %MON dynstat_uvel_sd              =   6.4950970781249E-03
(PID.TID 0000.0001) %MON dynstat_uvel_del2            =   8.3287855666767E-06
(PID.TID 0000.0001) %MON dynstat_vvel_max             =   2.7430235023574E-02
(PID.TID 0000.0001) %MON dynstat_vvel_min             =  -8.3628531037561E-03
(PID.TID 0000.0001) %MON dynstat_vvel_mean            =   3.9660472411801E-07
(PID.TID 0000.0001) %MON dynstat_vvel_sd              =   7.0726403067428E-03
(PID.TID 0000.0001) %MON dynstat_vvel_del2            =   1.5403773491375E-05
(PID.TID 0000.0001) %MON dynstat_wvel_max             =   3.4370749664886E-08
(PID.TID 0000.0001) %MON dynstat_wvel_min             =  -1.4126569814980E-08
(PID.TID 0000.0001) %MON dynstat_wvel_mean            =   9.2468124219320E-22
(PID.TID 0000.0001) %MON dynstat_wvel_sd              =   1.3702459292820E-08
(PID.TID 0000.0001) %MON dynstat_wvel_del2            =   4.5300591176504E-12
(PID.TID 0000.0001) %MON dynstat_theta_max            =   2.0000000000000E+01
(PID.TID 0000.0001) %MON dynstat_theta_min            =   2.0000000000000E+01
(PID.TID 0000.0001) %MON dynstat_theta_mean           =   2.0000000000000E+01
(PID.TID 0000.0001) %MON dynstat_theta_sd             =   3.8014036363165E-13
(PID.TID 0000.0001) %MON dynstat_theta_del2           =   0.0000000000000E+00
(PID.TID 0000.0001) %MON dynstat_salt_max             =   3.0000000000000E+01
(PID.TID 0000.0001) %MON dynstat_salt_min             =   3.0000000000000E+01
(PID.TID 0000.0001) %MON dynstat_salt_mean            =   2.9999999999999E+01
(PID.TID 0000.0001) %MON dynstat_salt_sd              =   5.5777604757167E-13
(PID.TID 0000.0001) %MON dynstat_salt_del2            =   0.0000000000000E+00
(PID.TID 0000.0001) %MON trAdv_CFL_u_max              =   1.0258466106740E-03
(PID.TID 0000.0001) %MON trAdv_CFL_v_max              =   1.6439885496427E-03
(PID.TID 0000.0001) %MON trAdv_CFL_w_max              =   8.8346235901129E-09
(PID.TID 0000.0001) %MON advcfl_uvel_max              =   1.0277851884633E-03
(PID.TID 0000.0001) %MON advcfl_vvel_max              =   1.6458141014144E-03
(PID.TID 0000.0001) %MON advcfl_wvel_max              =   1.6497959839145E-08
(PID.TID 0000.0001) %MON advcfl_W_hf_max              =   0.0000000000000E+00
(PID.TID 0000.0001) %MON pe_b_mean                    =   2.5228305787886E-07
(PID.TID 0000.0001) %MON ke_max                       =   3.7603924161869E-04
(PID.TID 0000.0001) %MON ke_mean                      =   4.5256470049209E-05
(PID.TID 0000.0001) %MON ke_vol                       =   6.8893493896486E+15
(PID.TID 0000.0001) %MON vort_r_min                   =  -1.6053181946936E-07
(PID.TID 0000.0001) %MON vort_r_max                   =   9.0606998439654E-07
(PID.TID 0000.0001) %MON vort_a_mean                  =   1.0600000000000E-04
(PID.TID 0000.0001) %MON vort_a_sd                    =   3.5195817440961E-06
(PID.TID 0000.0001) %MON vort_p_mean                  =   1.1652272308690E-04
(PID.TID 0000.0001) %MON vort_p_sd                    =   4.1643577675891E-05
(PID.TID 0000.0001) %MON surfExpan_theta_mean         =   1.8483585032906E-20
(PID.TID 0000.0001) %MON surfExpan_salt_mean          =   2.7782536764991E-20
(PID.TID 0000.0001) // =======================================================
(PID.TID 0000.0001) // End MONITOR dynamic field statistics
(PID.TID 0000.0001) // =======================================================
 cg2d: Sum(rhs),rhsMax =  -3.35549190207188E-05  4.90907592840525E-02
 cg2d: Sum(rhs),rhsMax =  -3.37111744003332E-05  4.91417329990269E-02
 cg2d: Sum(rhs),rhsMax =  -3.38676252451021E-05  4.91926767939652E-02
 cg2d: Sum(rhs),rhsMax =  -3.40242726725726E-05  4.92435905770456E-02
 cg2d: Sum(rhs),rhsMax =  -3.41811176953859E-05  4.92944742565257E-02
 cg2d: Sum(rhs),rhsMax =  -3.43381615978723E-05  4.93453277407327E-02
 cg2d: Sum(rhs),rhsMax =  -3.44954050572194E-05  4.93961509380716E-02
 cg2d: Sum(rhs),rhsMax =  -3.46528492199336E-05  4.94469437570197E-02
 cg2d: Sum(rhs),rhsMax =  -3.48104955155346E-05  4.94977061061299E-02
 cg2d: Sum(rhs),rhsMax =  -3.49683447834030E-05  4.95484378940287E-02
 cg2d: Sum(rhs),rhsMax =  -3.51263983801378E-05  4.95991390294186E-02
 cg2d: Sum(rhs),rhsMax =  -3.52846567907919E-05  4.96498094210757E-02
 cg2d: Sum(rhs),rhsMax =  -3.54431218631511E-05  4.97004489778549E-02
 cg2d: Sum(rhs),rhsMax =  -3.56017940839858E-05  4.97510576086882E-02
 cg2d: Sum(rhs),rhsMax =  -3.57606750080314E-05  4.98016352225821E-02
 cg2d: Sum(rhs),rhsMax =  -3.59197652607286E-05  4.98521817286250E-02
 cg2d: Sum(rhs),rhsMax =  -3.60790662731723E-05  4.99026970359804E-02
 cg2d: Sum(rhs),rhsMax =  -3.62385793218727E-05  4.99531810538911E-02
 cg2d: Sum(rhs),rhsMax =  -3.63983048759960E-05  5.00036336916816E-02
 cg2d: Sum(rhs),rhsMax =  -3.65582447703038E-05  5.00540548587540E-02
 cg2d: Sum(rhs),rhsMax =  -3.67183998073312E-05  5.01044444645901E-02
 cg2d: Sum(rhs),rhsMax =  -3.68787712557786E-05  5.01548024187539E-02
 cg2d: Sum(rhs),rhsMax =  -3.70393601285719E-05  5.02051286308901E-02
 cg2d: Sum(rhs),rhsMax =  -3.72001674176295E-05  5.02554230107249E-02
 cg2d: Sum(rhs),rhsMax =  -3.73611944829953E-05  5.03056854680664E-02
 cg2d: Sum(rhs),rhsMax =  -3.75224425012942E-05  5.03559159128049E-02
 cg2d: Sum(rhs),rhsMax =  -3.76839124728579E-05  5.04061142549155E-02
 cg2d: Sum(rhs),rhsMax =  -3.78456056539141E-05  5.04562804044544E-02
 cg2d: Sum(rhs),rhsMax =  -3.80075230116926E-05  5.05064142715633E-02
 cg2d: Sum(rhs),rhsMax =  -3.81696660221136E-05  5.05565157664675E-02
 cg2d: Sum(rhs),rhsMax =  -3.83320355969233E-05  5.06065847994787E-02
 cg2d: Sum(rhs),rhsMax =  -3.84946330304684E-05  5.06566212809923E-02
 cg2d: Sum(rhs),rhsMax =  -3.86574593187784E-05  5.07066251214907E-02
 cg2d: Sum(rhs),rhsMax =  -3.88205158590206E-05  5.07565962315407E-02
 cg2d: Sum(rhs),rhsMax =  -3.89838036051957E-05  5.08065345217984E-02
 cg2d: Sum(rhs),rhsMax =  -3.91473239981788E-05  5.08564399030063E-02
 cg2d: Sum(rhs),rhsMax =  -3.93110781190878E-05  5.09063122859930E-02
 cg2d: Sum(rhs),rhsMax =  -3.94750669638691E-05  5.09561515816782E-02
 cg2d: Sum(rhs),rhsMax =  -3.96392920852216E-05  5.10059577010666E-02
 cg2d: Sum(rhs),rhsMax =  -3.98037541898440E-05  5.10557305552554E-02
 cg2d: Sum(rhs),rhsMax =  -3.99684545595858E-05  5.11054700554294E-02
 cg2d: Sum(rhs),rhsMax =  -4.01333950235810E-05  5.11551761128642E-02
 cg2d: Sum(rhs),rhsMax =  -4.02985762484633E-05  5.12048486389245E-02
 cg2d: Sum(rhs),rhsMax =  -4.04639995213174E-05  5.12544875450684E-02
 cg2d: Sum(rhs),rhsMax =  -4.06296659863740E-05  5.13040927428437E-02
 cg2d: Sum(rhs),rhsMax =  -4.07955767968288E-05  5.13536641438906E-02
 cg2d: Sum(rhs),rhsMax =  -4.09617335300726E-05  5.14032016599395E-02
 cg2d: Sum(rhs),rhsMax =  -4.11281371165799E-05  5.14527052028177E-02
 cg2d: Sum(rhs),rhsMax =  -4.12947887604709E-05  5.15021746844429E-02
 cg2d: Sum(rhs),rhsMax =  -4.14616896458088E-05  5.15516100168269E-02
 cg2d: Sum(rhs),rhsMax =  -4.16288414186762E-05  5.16010111120762E-02
 cg2d: Sum(rhs),rhsMax =  -4.17962448775386E-05  5.16503778823905E-02
 cg2d: Sum(rhs),rhsMax =  -4.19639014943504E-05  5.16997102400669E-02
 cg2d: Sum(rhs),rhsMax =  -4.21318124808751E-05  5.17490080974954E-02
 cg2d: Sum(rhs),rhsMax =  -4.22999788297455E-05  5.17982713671650E-02
 cg2d: Sum(rhs),rhsMax =  -4.24684020250733E-05  5.18474999616577E-02
 cg2d: Sum(rhs),rhsMax =  -4.26370831689213E-05  5.18966937936552E-02
 cg2d: Sum(rhs),rhsMax =  -4.28060237440096E-05  5.19458527759351E-02
 cg2d: Sum(rhs),rhsMax =  -4.29752249073989E-05  5.19949768213731E-02
 cg2d: Sum(rhs),rhsMax =  -4.31446880009775E-05  5.20440658429434E-02
 cg2d: Sum(rhs),rhsMax =  -4.33144139472055E-05  5.20931197537192E-02
 cg2d: Sum(rhs),rhsMax =  -4.34844043794014E-05  5.21421384668709E-02
 cg2d: Sum(rhs),rhsMax =  -4.36546602802235E-05  5.21911218956710E-02
 cg2d: Sum(rhs),rhsMax =  -4.38251831556755E-05  5.22400699534909E-02
 cg2d: Sum(rhs),rhsMax =  -4.39959740280368E-05  5.22889825538023E-02
 cg2d: Sum(rhs),rhsMax =  -4.41670343423149E-05  5.23378596101790E-02
 cg2d: Sum(rhs),rhsMax =  -4.43383655637751E-05  5.23867010362932E-02
 cg2d: Sum(rhs),rhsMax =  -4.45099686869031E-05  5.24355067459235E-02
 cg2d: Sum(rhs),rhsMax =  -4.46818449907106E-05  5.24842766529470E-02
 cg2d: Sum(rhs),rhsMax =  -4.48539959300477E-05  5.25330106713460E-02
 cg2d: Sum(rhs),rhsMax =  -4.50264227161226E-05  5.25817087152030E-02
 cg2d: Sum(rhs),rhsMax =  -4.51991265348131E-05  5.26303706987088E-02
(PID.TID 0000.0001)      cg2d_init_res =   7.59578811141971E-03
(PID.TID 0000.0001)      cg2d_iters(min,last) =      -1      90
(PID.TID 0000.0001)      cg2d_last_res =   9.02716142744564E-08
(PID.TID 0000.0001) // =======================================================
(PID.TID 0000.0001) // Begin MONITOR dynamic field statistics
(PID.TID 0000.0001) // =======================================================
(PID.TID 0000.0001) %MON time_tsnumber                =                  1008
(PID.TID 0000.0001) %MON time_secondsf                =   1.2096000000000E+06
(PID.TID 0000.0001) %MON dynstat_eta_max              =   3.5247023015053E-02
(PID.TID 0000.0001) %MON dynstat_eta_min              =  -2.2439769246820E-02
(PID.TID 0000.0001) %MON dynstat_eta_mean             =   1.1944662219017E-08
(PID.TID 0000.0001) %MON dynstat_eta_sd               =   1.6703666814235E-02
(PID.TID 0000.0001) %MON dynstat_eta_del2             =   3.9493992314907E-06
(PID.TID 0000.0001) %MON dynstat_uvel_max             =   1.8891287421762E-02
(PID.TID 0000.0001) %MON dynstat_uvel_min             =  -9.5008074286061E-03
(PID.TID 0000.0001) %MON dynstat_uvel_mean            =  -4.0346203334733E-07
(PID.TID 0000.0001) %MON dynstat_uvel_sd              =   6.9238984891267E-03
(PID.TID 0000.0001) %MON dynstat_uvel_del2            =   8.9836310073329E-06
(PID.TID 0000.0001) %MON dynstat_vvel_max             =   2.9611466357705E-02
(PID.TID 0000.0001) %MON dynstat_vvel_min             =  -8.9406490558204E-03
(PID.TID 0000.0001) %MON dynstat_vvel_mean            =   4.3248057866092E-07
(PID.TID 0000.0001) %MON dynstat_vvel_sd              =   7.5364056307599E-03
(PID.TID 0000.0001) %MON dynstat_vvel_del2            =   1.6865024032921E-05
(PID.TID 0000.0001) %MON dynstat_wvel_max             =   3.4495605850680E-08
(PID.TID 0000.0001) %MON dynstat_wvel_min             =  -1.3571195224940E-08
(PID.TID 0000.0001) %MON dynstat_wvel_mean            =   1.3016779121244E-21
(PID.TID 0000.0001) %MON dynstat_wvel_sd              =   1.3530415475841E-08
(PID.TID 0000.0001) %MON dynstat_wvel_del2            =   4.6278035026341E-12
(PID.TID 0000.0001) %MON dynstat_theta_max            =   2.0000000000000E+01
(PID.TID 0000.0001) %MON dynstat_theta_min            =   2.0000000000000E+01
(PID.TID 0000.0001) %MON dynstat_theta_mean           =   2.0000000000000E+01
(PID.TID 0000.0001) %MON dynstat_theta_sd             =   3.8014036363165E-13
(PID.TID 0000.0001) %MON dynstat_theta_del2           =   0.0000000000000E+00
(PID.TID 0000.0001) %MON dynstat_salt_max             =   3.0000000000000E+01
(PID.TID 0000.0001) %MON dynstat_salt_min             =   3.0000000000000E+01
(PID.TID 0000.0001) %MON dynstat_salt_mean            =   2.9999999999999E+01
(PID.TID 0000.0001) %MON dynstat_salt_sd              =   5.5777604757167E-13
(PID.TID 0000.0001) %MON dynstat_salt_del2            =   0.0000000000000E+00
(PID.TID 0000.0001) %MON trAdv_CFL_u_max              =   1.1314439023714E-03
(PID.TID 0000.0001) %MON trAdv_CFL_v_max              =   1.7748986907752E-03
(PID.TID 0000.0001) %MON trAdv_CFL_w_max              =   8.8475211408439E-09
(PID.TID 0000.0001) %MON advcfl_uvel_max              =   1.1334772453057E-03
(PID.TID 0000.0001) %MON advcfl_vvel_max              =   1.7766879814623E-03
(PID.TID 0000.0001) %MON advcfl_wvel_max              =   1.6557890808326E-08
(PID.TID 0000.0001) %MON advcfl_W_hf_max              =   0.0000000000000E+00
(PID.TID 0000.0001) %MON pe_b_mean                    =   2.8605327918244E-07
(PID.TID 0000.0001) %MON ke_max                       =   4.3783999925174E-04
(PID.TID 0000.0001) %MON ke_mean                      =   5.1405898818808E-05
(PID.TID 0000.0001) %MON ke_vol                       =   6.8893493896486E+15
(PID.TID 0000.0001) %MON vort_r_min                   =  -1.7913958609791E-07
(PID.TID 0000.0001) %MON vort_r_max                   =   9.6253323834933E-07
(PID.TID 0000.0001) %MON vort_a_mean                  =   1.0600000000000E-04
(PID.TID 0000.0001) %MON vort_a_sd                    =   3.5198477122764E-06
(PID.TID 0000.0001) %MON vort_p_mean                  =   1.1652272308690E-04
(PID.TID 0000.0001) %MON vort_p_sd                    =   4.1649275383393E-05
(PID.TID 0000.0001) %MON surfExpan_theta_mean         =   2.5995127038590E-20
(PID.TID 0000.0001) %MON surfExpan_salt_mean          =   3.9007848802915E-20
(PID.TID 0000.0001) // =======================================================
(PID.TID 0000.0001) // End MONITOR dynamic field statistics
(PID.TID 0000.0001) // =======================================================
 cg2d: Sum(rhs),rhsMax =  -4.53721089058098E-05  5.26789965361533E-02
 cg2d: Sum(rhs),rhsMax =  -4.55453708176484E-05  5.27275861419336E-02
 cg2d: Sum(rhs),rhsMax =  -4.57189138958376E-05  5.27761394305522E-02
 cg2d: Sum(rhs),rhsMax =  -4.58927393069686E-05  5.28246563166155E-02
 cg2d: Sum(rhs),rhsMax =  -4.60668482647232E-05  5.28731367148370E-02
 cg2d: Sum(rhs),rhsMax =  -4.62412422894513E-05  5.29215805400353E-02
 cg2d: Sum(rhs),rhsMax =  -4.64159224405590E-05  5.29699877071360E-02
 cg2d: Sum(rhs),rhsMax =  -4.65908902433955E-05  5.30183581311739E-02
 cg2d: Sum(rhs),rhsMax =  -4.67661466112962E-05  5.30666917272878E-02
 cg2d: Sum(rhs),rhsMax =  -4.69416932868810E-05  5.31149884107278E-02
 cg2d: Sum(rhs),rhsMax =  -4.71175314445786E-05  5.31632480968508E-02
 cg2d: Sum(rhs),rhsMax =  -4.72936624316932E-05  5.32114707011239E-02
 cg2d: Sum(rhs),rhsMax =  -4.74700873616847E-05  5.32596561391225E-02
 cg2d: Sum(rhs),rhsMax =  -4.76468078505973E-05  5.33078043265310E-02
 cg2d: Sum(rhs),rhsMax =  -4.78238249816791E-05  5.33559151791461E-02
 cg2d: Sum(rhs),rhsMax =  -4.80011403643892E-05  5.34039886128756E-02
 cg2d: Sum(rhs),rhsMax =  -4.81787551313735E-05  5.34520245437349E-02
 cg2d: Sum(rhs),rhsMax =  -4.83566707305087E-05  5.35000228878544E-02
 cg2d: Sum(rhs),rhsMax =  -4.85348880932962E-05  5.35479835614758E-02
 cg2d: Sum(rhs),rhsMax =  -4.87134089753490E-05  5.35959064809518E-02
 cg2d: Sum(rhs),rhsMax =  -4.88922343778384E-05  5.36437915627497E-02
 cg2d: Sum(rhs),rhsMax =  -4.90713658980006E-05  5.36916387234484E-02
 cg2d: Sum(rhs),rhsMax =  -4.92508049198884E-05  5.37394478797433E-02
 cg2d: Sum(rhs),rhsMax =  -4.94305524115224E-05  5.37872189484405E-02
 cg2d: Sum(rhs),rhsMax =  -4.96106101180865E-05  5.38349518464635E-02
 cg2d: Sum(rhs),rhsMax =  -4.97909792257153E-05  5.38826464908494E-02
 cg2d: Sum(rhs),rhsMax =  -4.99716607941132E-05  5.39303027987515E-02
 cg2d: Sum(rhs),rhsMax =  -5.01526564754481E-05  5.39779206874380E-02
 cg2d: Sum(rhs),rhsMax =  -5.03339673640808E-05  5.40255000742946E-02
 cg2d: Sum(rhs),rhsMax =  -5.05155950986103E-05  5.40730408768237E-02
 cg2d: Sum(rhs),rhsMax =  -5.06975407686891E-05  5.41205430126436E-02
 cg2d: Sum(rhs),rhsMax =  -5.08798058042985E-05  5.41680063994919E-02
 cg2d: Sum(rhs),rhsMax =  -5.10623916615827E-05  5.42154309552232E-02
 cg2d: Sum(rhs),rhsMax =  -5.12452992777780E-05  5.42628165978103E-02
 cg2d: Sum(rhs),rhsMax =  -5.14285304462313E-05  5.43101632453456E-02
 cg2d: Sum(rhs),rhsMax =  -5.16120862202839E-05  5.43574708160415E-02
 cg2d: Sum(rhs),rhsMax =  -5.17959679460465E-05  5.44047392282286E-02
 cg2d: Sum(rhs),rhsMax =  -5.19801770552282E-05  5.44519684003583E-02
 cg2d: Sum(rhs),rhsMax =  -5.21647147864839E-05  5.44991582510028E-02
 cg2d: Sum(rhs),rhsMax =  -5.23495825681605E-05  5.45463086988554E-02
 cg2d: Sum(rhs),rhsMax =  -5.25347815744093E-05  5.45934196627305E-02
 cg2d: Sum(rhs),rhsMax =  -5.27201267637480E-05  5.46406843663130E-02
 cg2d: Sum(rhs),rhsMax =  -5.29047890092185E-05  5.46889597167970E-02
 cg2d: Sum(rhs),rhsMax =  -5.30897771357057E-05  5.47371982489607E-02
 cg2d: Sum(rhs),rhsMax =  -5.32750928591702E-05  5.47853998802856E-02
 cg2d: Sum(rhs),rhsMax =  -5.34607371308823E-05  5.48335645283626E-02
 cg2d: Sum(rhs),rhsMax =  -5.36467114464062E-05  5.48816921108910E-02
 cg2d: Sum(rhs),rhsMax =  -5.38330171774223E-05  5.49297825456783E-02
 cg2d: Sum(rhs),rhsMax =  -5.40196555343202E-05  5.49778357506409E-02
 cg2d: Sum(rhs),rhsMax =  -5.42066276542422E-05  5.50258516438036E-02
 cg2d: Sum(rhs),rhsMax =  -5.43939348706945E-05  5.50738301433027E-02
 cg2d: Sum(rhs),rhsMax =  -5.45815783675983E-05  5.51217711673851E-02
 cg2d: Sum(rhs),rhsMax =  -5.47695596285029E-05  5.51696746344056E-02
 cg2d: Sum(rhs),rhsMax =  -5.49578798734671E-05  5.52175404628340E-02
 cg2d: Sum(rhs),rhsMax =  -5.51465403732902E-05  5.52653685712476E-02
 cg2d: Sum(rhs),rhsMax =  -5.53355422368770E-05  5.53131588783386E-02
 cg2d: Sum(rhs),rhsMax =  -5.55248869060603E-05  5.53609113029108E-02
 cg2d: Sum(rhs),rhsMax =  -5.57145756091663E-05  5.54086257638791E-02
 cg2d: Sum(rhs),rhsMax =  -5.60342345717231E-05  5.54563022703172E-02
 cg2d: Sum(rhs),rhsMax =  -5.63542375726263E-05  5.55039405574275E-02
 cg2d: Sum(rhs),rhsMax =  -5.66746055027934E-05  5.55515406384616E-02
 cg2d: Sum(rhs),rhsMax =  -5.69953313448689E-05  5.55991024340726E-02
 cg2d: Sum(rhs),rhsMax =  -5.73164162986327E-05  5.56466258623303E-02
 cg2d: Sum(rhs),rhsMax =  -5.76378609639695E-05  5.56941108425134E-02
 cg2d: Sum(rhs),rhsMax =  -5.79596655865856E-05  5.57415572946624E-02
 cg2d: Sum(rhs),rhsMax =  -5.82818310624136E-05  5.57889651387426E-02
 cg2d: Sum(rhs),rhsMax =  -5.86043577368994E-05  5.58363342946546E-02
 cg2d: Sum(rhs),rhsMax =  -5.89272460464266E-05  5.58836646823965E-02
 cg2d: Sum(rhs),rhsMax =  -5.92504964841527E-05  5.59309562221338E-02
 cg2d: Sum(rhs),rhsMax =  -5.95741094280566E-05  5.59782088341792E-02
 cg2d: Sum(rhs),rhsMax =  -5.98980852219572E-05  5.60254224389716E-02
 cg2d: Sum(rhs),rhsMax =  -6.02224242444264E-05  5.60725969570593E-02
(PID.TID 0000.0001)      cg2d_init_res =   7.05286868966689E-03
(PID.TID 0000.0001)      cg2d_iters(min,last) =      -1      89
(PID.TID 0000.0001)      cg2d_last_res =   9.71904469564179E-08
(PID.TID 0000.0001) // =======================================================
(PID.TID 0000.0001) // Begin MONITOR dynamic field statistics
(PID.TID 0000.0001) // =======================================================
(PID.TID 0000.0001) %MON time_tsnumber                =                  1080
(PID.TID 0000.0001) %MON time_secondsf                =   1.2960000000000E+06
(PID.TID 0000.0001) %MON dynstat_eta_max              =   3.7692055167312E-02
(PID.TID 0000.0001) %MON dynstat_eta_min              =  -2.3406745124636E-02
(PID.TID 0000.0001) %MON dynstat_eta_mean             =   1.6980737338475E-08
(PID.TID 0000.0001) %MON dynstat_eta_sd               =   1.7689133071262E-02
(PID.TID 0000.0001) %MON dynstat_eta_del2             =   4.3191880272659E-06
(PID.TID 0000.0001) %MON dynstat_uvel_max             =   2.0702908711417E-02
(PID.TID 0000.0001) %MON dynstat_uvel_min             =  -9.6582819571460E-03
(PID.TID 0000.0001) %MON dynstat_uvel_mean            =  -3.7247945928059E-07
(PID.TID 0000.0001) %MON dynstat_uvel_sd              =   7.3505613177777E-03
(PID.TID 0000.0001) %MON dynstat_uvel_del2            =   9.6454363036060E-06
(PID.TID 0000.0001) %MON dynstat_vvel_max             =   3.1836410270433E-02
(PID.TID 0000.0001) %MON dynstat_vvel_min             =  -9.5680035404079E-03
(PID.TID 0000.0001) %MON dynstat_vvel_mean            =   4.6309015071861E-07
(PID.TID 0000.0001) %MON dynstat_vvel_sd              =   7.9793507340934E-03
(PID.TID 0000.0001) %MON dynstat_vvel_del2            =   1.8304039939688E-05
(PID.TID 0000.0001) %MON dynstat_wvel_max             =   3.4478888242629E-08
(PID.TID 0000.0001) %MON dynstat_wvel_min             =  -1.3041808769922E-08
(PID.TID 0000.0001) %MON dynstat_wvel_mean            =  -1.5992767051406E-21
(PID.TID 0000.0001) %MON dynstat_wvel_sd              =   1.3354118780109E-08
(PID.TID 0000.0001) %MON dynstat_wvel_del2            =   4.7120217375555E-12
(PID.TID 0000.0001) %MON dynstat_theta_max            =   2.0000000000000E+01
(PID.TID 0000.0001) %MON dynstat_theta_min            =   2.0000000000000E+01
(PID.TID 0000.0001) %MON dynstat_theta_mean           =   2.0000000000000E+01
(PID.TID 0000.0001) %MON dynstat_theta_sd             =   3.8014036363165E-13
(PID.TID 0000.0001) %MON dynstat_theta_del2           =   0.0000000000000E+00
(PID.TID 0000.0001) %MON dynstat_salt_max             =   3.0000000000000E+01
(PID.TID 0000.0001) %MON dynstat_salt_min             =   3.0000000000000E+01
(PID.TID 0000.0001) %MON dynstat_salt_mean            =   2.9999999999999E+01
(PID.TID 0000.0001) %MON dynstat_salt_sd              =   5.5777604757167E-13
(PID.TID 0000.0001) %MON dynstat_salt_del2            =   0.0000000000000E+00
(PID.TID 0000.0001) %MON trAdv_CFL_u_max              =   1.2400494869211E-03
(PID.TID 0000.0001) %MON trAdv_CFL_v_max              =   1.9083190678189E-03
(PID.TID 0000.0001) %MON trAdv_CFL_w_max              =   8.8363605576092E-09
(PID.TID 0000.0001) %MON advcfl_uvel_max              =   1.2421745226850E-03
(PID.TID 0000.0001) %MON advcfl_vvel_max              =   1.9101846162260E-03
(PID.TID 0000.0001) %MON advcfl_wvel_max              =   1.6549866356462E-08
(PID.TID 0000.0001) %MON advcfl_W_hf_max              =   0.0000000000000E+00
(PID.TID 0000.0001) %MON pe_b_mean                    =   3.2080150095355E-07
(PID.TID 0000.0001) %MON ke_max                       =   5.0619350674556E-04
(PID.TID 0000.0001) %MON ke_mean                      =   5.7768217768787E-05
(PID.TID 0000.0001) %MON ke_vol                       =   6.8893493896486E+15
(PID.TID 0000.0001) %MON vort_r_min                   =  -1.9793491572324E-07
(PID.TID 0000.0001) %MON vort_r_max                   =   1.0148750989525E-06
(PID.TID 0000.0001) %MON vort_a_mean                  =   1.0600000000000E-04
(PID.TID 0000.0001) %MON vort_a_sd                    =   3.5201271182684E-06
(PID.TID 0000.0001) %MON vort_p_mean                  =   1.1652272308690E-04
(PID.TID 0000.0001) %MON vort_p_sd                    =   4.1654669903822E-05
(PID.TID 0000.0001) %MON surfExpan_theta_mean         =  -3.1785576639878E-20
(PID.TID 0000.0001) %MON surfExpan_salt_mean          =  -4.7629100663471E-20
(PID.TID 0000.0001) // =======================================================
(PID.TID 0000.0001) // End MONITOR dynamic field statistics
(PID.TID 0000.0001) // =======================================================
 cg2d: Sum(rhs),rhsMax =  -6.05471268471450E-05  5.61197323090998E-02
 cg2d: Sum(rhs),rhsMax =  -6.08721933980823E-05  5.61668284158635E-02
 cg2d: Sum(rhs),rhsMax =  -6.11976240846787E-05  5.62138851982383E-02
 cg2d: Sum(rhs),rhsMax =  -6.15234192247079E-05  5.62609025772341E-02
 cg2d: Sum(rhs),rhsMax =  -6.18495792046245E-05  5.63078804739866E-02
 cg2d: Sum(rhs),rhsMax =  -6.21761040585853E-05  5.63548188097493E-02
 cg2d: Sum(rhs),rhsMax =  -6.25029937504143E-05  5.64017175059005E-02
 cg2d: Sum(rhs),rhsMax =  -6.28302488970521E-05  5.64485764839407E-02
 cg2d: Sum(rhs),rhsMax =  -6.31578691470958E-05  5.64953956654891E-02
 cg2d: Sum(rhs),rhsMax =  -6.34858549306040E-05  5.65421749722890E-02
 cg2d: Sum(rhs),rhsMax =  -6.38142061136944E-05  5.65889143262050E-02
 cg2d: Sum(rhs),rhsMax =  -6.41429228378197E-05  5.66356136492240E-02
 cg2d: Sum(rhs),rhsMax =  -6.44720049369531E-05  5.66822728634583E-02
 cg2d: Sum(rhs),rhsMax =  -6.48014523642430E-05  5.67288918911423E-02
 cg2d: Sum(rhs),rhsMax =  -6.51312649410651E-05  5.67754706546363E-02
 cg2d: Sum(rhs),rhsMax =  -6.54614429337584E-05  5.68220090764243E-02
 cg2d: Sum(rhs),rhsMax =  -6.57919860763481E-05  5.68685070791161E-02
 cg2d: Sum(rhs),rhsMax =  -6.61228940856302E-05  5.69149645854463E-02
 cg2d: Sum(rhs),rhsMax =  -6.64541666864811E-05  5.69613815182763E-02
 cg2d: Sum(rhs),rhsMax =  -6.67858036833627E-05  5.70077578005919E-02
 cg2d: Sum(rhs),rhsMax =  -6.71178047859898E-05  5.70540933555081E-02
 cg2d: Sum(rhs),rhsMax =  -6.74501697387059E-05  5.71003881062647E-02
 cg2d: Sum(rhs),rhsMax =  -6.77828981325013E-05  5.71466419762295E-02
 cg2d: Sum(rhs),rhsMax =  -6.81159895788222E-05  5.71928548888986E-02
 cg2d: Sum(rhs),rhsMax =  -6.84494435940139E-05  5.72390267678964E-02
 cg2d: Sum(rhs),rhsMax =  -6.87832597363984E-05  5.72851575369740E-02
 cg2d: Sum(rhs),rhsMax =  -6.91174374293987E-05  5.73312471200133E-02
 cg2d: Sum(rhs),rhsMax =  -6.94519762794825E-05  5.73772954410258E-02
 cg2d: Sum(rhs),rhsMax =  -6.97868755853079E-05  5.74233024241507E-02
 cg2d: Sum(rhs),rhsMax =  -7.01221348250007E-05  5.74692679936587E-02
 cg2d: Sum(rhs),rhsMax =  -7.04577531362854E-05  5.75151920739501E-02
 cg2d: Sum(rhs),rhsMax =  -7.07937299103019E-05  5.75610745895577E-02
 cg2d: Sum(rhs),rhsMax =  -7.11300645768638E-05  5.76069154651434E-02
 cg2d: Sum(rhs),rhsMax =  -7.14667559766347E-05  5.76527146255019E-02
 cg2d: Sum(rhs),rhsMax =  -7.18038034221262E-05  5.76984719955597E-02
 cg2d: Sum(rhs),rhsMax =  -7.21412060827147E-05  5.77441875003748E-02
 cg2d: Sum(rhs),rhsMax =  -7.24789630702181E-05  5.77898610651395E-02
 cg2d: Sum(rhs),rhsMax =  -7.38409028103112E-05  5.78354924918674E-02
 cg2d: Sum(rhs),rhsMax =  -7.51979008198830E-05  5.78810819315652E-02
 cg2d: Sum(rhs),rhsMax =  -7.65499126383976E-05  5.79266292134166E-02
 cg2d: Sum(rhs),rhsMax =  -7.78969556237581E-05  5.79721342581082E-02
 cg2d: Sum(rhs),rhsMax =  -7.92390307494048E-05  5.80175969909998E-02
 cg2d: Sum(rhs),rhsMax =  -8.05761385638294E-05  5.80630173372750E-02
 cg2d: Sum(rhs),rhsMax =  -8.19082792679823E-05  5.81083952236827E-02
 cg2d: Sum(rhs),rhsMax =  -8.33527809200145E-05  5.81537306017318E-02
 cg2d: Sum(rhs),rhsMax =  -8.47913585095041E-05  5.81990233475110E-02
 cg2d: Sum(rhs),rhsMax =  -8.62240606481178E-05  5.82442734121293E-02
 cg2d: Sum(rhs),rhsMax =  -8.76508751940577E-05  5.82894807209492E-02
 cg2d: Sum(rhs),rhsMax =  -8.90718089882579E-05  5.83346452025935E-02
 cg2d: Sum(rhs),rhsMax =  -9.04868674711512E-05  5.83797667842863E-02
 cg2d: Sum(rhs),rhsMax =  -9.18960559973571E-05  5.84248453930218E-02
 cg2d: Sum(rhs),rhsMax =  -9.32993803052506E-05  5.84698809559107E-02
 cg2d: Sum(rhs),rhsMax =  -9.46968452186468E-05  5.85148734002708E-02
 cg2d: Sum(rhs),rhsMax =  -9.60884565210686E-05  5.85598226535797E-02
 cg2d: Sum(rhs),rhsMax =  -9.74742201469009E-05  5.86047286434641E-02
 cg2d: Sum(rhs),rhsMax =  -9.88541416303938E-05  5.86495912977026E-02
 cg2d: Sum(rhs),rhsMax =  -1.00228226710873E-04  5.86944105442270E-02
 cg2d: Sum(rhs),rhsMax =  -1.01596481139863E-04  5.87391863111141E-02
 cg2d: Sum(rhs),rhsMax =  -1.02958911054180E-04  5.87839185265768E-02
 cg2d: Sum(rhs),rhsMax =  -1.04315522259018E-04  5.88286071189651E-02
 cg2d: Sum(rhs),rhsMax =  -1.05666320776833E-04  5.88732520167675E-02
 cg2d: Sum(rhs),rhsMax =  -1.07118841665428E-04  5.89178531151689E-02
 cg2d: Sum(rhs),rhsMax =  -1.08564678646776E-04  5.89624104134452E-02
 cg2d: Sum(rhs),rhsMax =  -1.10003790895988E-04  5.90069238004175E-02
 cg2d: Sum(rhs),rhsMax =  -1.11436203078113E-04  5.90513932056653E-02
 cg2d: Sum(rhs),rhsMax =  -1.12861929167384E-04  5.90958185608564E-02
 cg2d: Sum(rhs),rhsMax =  -1.14280981800691E-04  5.91401997958597E-02
 cg2d: Sum(rhs),rhsMax =  -1.15693372905963E-04  5.91845368398707E-02
 cg2d: Sum(rhs),rhsMax =  -1.17099114702795E-04  5.92288296223167E-02
 cg2d: Sum(rhs),rhsMax =  -1.18498218980731E-04  5.92730780729525E-02
 cg2d: Sum(rhs),rhsMax =  -1.19890698359666E-04  5.93172821217233E-02
 cg2d: Sum(rhs),rhsMax =  -1.21276565134863E-04  5.93614416987089E-02
(PID.TID 0000.0001)      cg2d_init_res =   6.57556755619162E-03
(PID.TID 0000.0001)      cg2d_iters(min,last) =      -1      82
(PID.TID 0000.0001)      cg2d_last_res =   9.44103073110675E-08
(PID.TID 0000.0001) // =======================================================
(PID.TID 0000.0001) // Begin MONITOR dynamic field statistics
(PID.TID 0000.0001) // =======================================================
(PID.TID 0000.0001) %MON time_tsnumber                =                  1152
(PID.TID 0000.0001) %MON time_secondsf                =   1.3824000000000E+06
(PID.TID 0000.0001) %MON dynstat_eta_max              =   4.0077509699984E-02
(PID.TID 0000.0001) %MON dynstat_eta_min              =  -2.4311289074970E-02
(PID.TID 0000.0001) %MON dynstat_eta_mean             =   3.6413521912175E-08
(PID.TID 0000.0001) %MON dynstat_eta_sd               =   1.8643651675179E-02
(PID.TID 0000.0001) %MON dynstat_eta_del2             =   4.6922539986115E-06
(PID.TID 0000.0001) %MON dynstat_uvel_max             =   2.2558902319647E-02
(PID.TID 0000.0001) %MON dynstat_uvel_min             =  -9.7741202023908E-03
(PID.TID 0000.0001) %MON dynstat_uvel_mean            =  -3.3689878930677E-07
(PID.TID 0000.0001) %MON dynstat_uvel_sd              =   7.7766388112088E-03
(PID.TID 0000.0001) %MON dynstat_uvel_del2            =   1.0320016168823E-05
(PID.TID 0000.0001) %MON dynstat_vvel_max             =   3.4023323647021E-02
(PID.TID 0000.0001) %MON dynstat_vvel_min             =  -1.0225307063176E-02
(PID.TID 0000.0001) %MON dynstat_vvel_mean            =   4.8779214106139E-07
(PID.TID 0000.0001) %MON dynstat_vvel_sd              =   8.4002907576601E-03
(PID.TID 0000.0001) %MON dynstat_vvel_del2            =   1.9709832480225E-05
(PID.TID 0000.0001) %MON dynstat_wvel_max             =   3.4355982183370E-08
(PID.TID 0000.0001) %MON dynstat_wvel_min             =  -1.2511897892109E-08
(PID.TID 0000.0001) %MON dynstat_wvel_mean            =  -7.1860591156615E-22
(PID.TID 0000.0001) %MON dynstat_wvel_sd              =   1.3173013442664E-08
(PID.TID 0000.0001) %MON dynstat_wvel_del2            =   4.7839582108088E-12
(PID.TID 0000.0001) %MON dynstat_theta_max            =   2.0000000000000E+01
(PID.TID 0000.0001) %MON dynstat_theta_min            =   2.0000000000000E+01
(PID.TID 0000.0001) %MON dynstat_theta_mean           =   2.0000000000000E+01
(PID.TID 0000.0001) %MON dynstat_theta_sd             =   3.8014036363165E-13
(PID.TID 0000.0001) %MON dynstat_theta_del2           =   0.0000000000000E+00
(PID.TID 0000.0001) %MON dynstat_salt_max             =   3.0000000000000E+01
(PID.TID 0000.0001) %MON dynstat_salt_min             =   3.0000000000000E+01
(PID.TID 0000.0001) %MON dynstat_salt_mean            =   2.9999999999999E+01
(PID.TID 0000.0001) %MON dynstat_salt_sd              =   5.5777604757167E-13
(PID.TID 0000.0001) %MON dynstat_salt_del2            =   0.0000000000000E+00
(PID.TID 0000.0001) %MON trAdv_CFL_u_max              =   1.3513211145173E-03
(PID.TID 0000.0001) %MON trAdv_CFL_v_max              =   2.0396218090332E-03
(PID.TID 0000.0001) %MON trAdv_CFL_w_max              =   8.7937870283052E-09
(PID.TID 0000.0001) %MON advcfl_uvel_max              =   1.3535341391788E-03
(PID.TID 0000.0001) %MON advcfl_vvel_max              =   2.0413994188213E-03
(PID.TID 0000.0001) %MON advcfl_wvel_max              =   1.6490871448017E-08
(PID.TID 0000.0001) %MON advcfl_W_hf_max              =   0.0000000000000E+00
(PID.TID 0000.0001) %MON pe_b_mean                    =   3.5635696709705E-07
(PID.TID 0000.0001) %MON ke_max                       =   5.7843990784290E-04
(PID.TID 0000.0001) %MON ke_mean                      =   6.4315666897659E-05
(PID.TID 0000.0001) %MON ke_vol                       =   6.8893493896486E+15
(PID.TID 0000.0001) %MON vort_r_min                   =  -2.1672167595167E-07
(PID.TID 0000.0001) %MON vort_r_max                   =   1.0643636082935E-06
(PID.TID 0000.0001) %MON vort_a_mean                  =   1.0600000000000E-04
(PID.TID 0000.0001) %MON vort_a_sd                    =   3.5204180894580E-06
(PID.TID 0000.0001) %MON vort_p_mean                  =   1.1652272308690E-04
(PID.TID 0000.0001) %MON vort_p_sd                    =   4.1659789851522E-05
(PID.TID 0000.0001) %MON surfExpan_theta_mean         =  -1.4094957300080E-20
(PID.TID 0000.0001) %MON surfExpan_salt_mean          =  -2.1037117726842E-20
(PID.TID 0000.0001) // =======================================================
(PID.TID 0000.0001) // End MONITOR dynamic field statistics
(PID.TID 0000.0001) // =======================================================
 cg2d: Sum(rhs),rhsMax =  -1.22655831688613E-04  5.94055567341218E-02
 cg2d: Sum(rhs),rhsMax =  -1.24028510413599E-04  5.94496271583237E-02
 cg2d: Sum(rhs),rhsMax =  -1.25394614373171E-04  5.94936529018215E-02
 cg2d: Sum(rhs),rhsMax =  -1.26754155993235E-04  5.95376338952715E-02
 cg2d: Sum(rhs),rhsMax =  -1.28107147760181E-04  5.95815700694725E-02
 cg2d: Sum(rhs),rhsMax =  -1.29453602704981E-04  5.96254613553739E-02
 cg2d: Sum(rhs),rhsMax =  -1.30793533643800E-04  5.96693076840694E-02
 cg2d: Sum(rhs),rhsMax =  -1.32126953429772E-04  5.97131089868020E-02
 cg2d: Sum(rhs),rhsMax =  -1.33552332533163E-04  5.97568652255961E-02
 cg2d: Sum(rhs),rhsMax =  -1.34970360784737E-04  5.98005762768838E-02
 cg2d: Sum(rhs),rhsMax =  -1.36381056858214E-04  5.98442420920362E-02
 cg2d: Sum(rhs),rhsMax =  -1.37784433908390E-04  5.98878626045426E-02
 cg2d: Sum(rhs),rhsMax =  -1.39180514170160E-04  5.99314377495178E-02
 cg2d: Sum(rhs),rhsMax =  -1.40569317949393E-04  5.99749674597643E-02
 cg2d: Sum(rhs),rhsMax =  -1.41950865121369E-04  6.00184516671820E-02
 cg2d: Sum(rhs),rhsMax =  -1.43325175355449E-04  6.00618903039270E-02
 cg2d: Sum(rhs),rhsMax =  -1.44692268547891E-04  6.01052833025650E-02
 cg2d: Sum(rhs),rhsMax =  -1.46052163950895E-04  6.01486305958847E-02
 cg2d: Sum(rhs),rhsMax =  -1.47404882048143E-04  6.01919321168025E-02
 cg2d: Sum(rhs),rhsMax =  -1.48750442573786E-04  6.02351877983696E-02
 cg2d: Sum(rhs),rhsMax =  -1.50088865390870E-04  6.02783975737826E-02
 cg2d: Sum(rhs),rhsMax =  -1.51420170802018E-04  6.03215613764000E-02
 cg2d: Sum(rhs),rhsMax =  -1.52744378662414E-04  6.03646791397311E-02
 cg2d: Sum(rhs),rhsMax =  -1.54061509074200E-04  6.04077507974400E-02
 cg2d: Sum(rhs),rhsMax =  -1.55371582693214E-04  6.04507762833417E-02
 cg2d: Sum(rhs),rhsMax =  -1.56674619292318E-04  6.04937555314058E-02
 cg2d: Sum(rhs),rhsMax =  -1.58052758900032E-04  6.05366884479967E-02
 cg2d: Sum(rhs),rhsMax =  -1.59423208673869E-04  6.05795750251174E-02
 cg2d: Sum(rhs),rhsMax =  -1.60785966551249E-04  6.06224151671277E-02
 cg2d: Sum(rhs),rhsMax =  -1.62141060061641E-04  6.06652088052562E-02
 cg2d: Sum(rhs),rhsMax =  -1.63488518268119E-04  6.07079558775798E-02
 cg2d: Sum(rhs),rhsMax =  -1.64828368136156E-04  6.07506563198525E-02
 cg2d: Sum(rhs),rhsMax =  -1.66160636441773E-04  6.07933100666836E-02
 cg2d: Sum(rhs),rhsMax =  -1.67485349385012E-04  6.08359170529711E-02
 cg2d: Sum(rhs),rhsMax =  -1.68802532480243E-04  6.08784772140716E-02
 cg2d: Sum(rhs),rhsMax =  -1.70112212346727E-04  6.09209904855711E-02
 cg2d: Sum(rhs),rhsMax =  -1.71411156454349E-04  6.09646157484057E-02
 cg2d: Sum(rhs),rhsMax =  -1.72701618774938E-04  6.10085424440229E-02
 cg2d: Sum(rhs),rhsMax =  -1.73984591099866E-04  6.10524249001652E-02
 cg2d: Sum(rhs),rhsMax =  -1.75260100467783E-04  6.10962630496984E-02
 cg2d: Sum(rhs),rhsMax =  -1.76528173088757E-04  6.11400568256343E-02
 cg2d: Sum(rhs),rhsMax =  -1.77788836372657E-04  6.11838061611296E-02
 cg2d: Sum(rhs),rhsMax =  -1.79042116686765E-04  6.12275109894814E-02
 cg2d: Sum(rhs),rhsMax =  -1.80288041224129E-04  6.12711712441304E-02
 cg2d: Sum(rhs),rhsMax =  -1.81526636482698E-04  6.13147868586578E-02
 cg2d: Sum(rhs),rhsMax =  -1.82757929538674E-04  6.13583577667931E-02
 cg2d: Sum(rhs),rhsMax =  -1.84047940260078E-04  6.14018838813053E-02
 cg2d: Sum(rhs),rhsMax =  -1.85330163826113E-04  6.14453651833156E-02
 cg2d: Sum(rhs),rhsMax =  -1.86604628312739E-04  6.14888015783904E-02
 cg2d: Sum(rhs),rhsMax =  -1.87871357649288E-04  6.15321929997576E-02
 cg2d: Sum(rhs),rhsMax =  -1.89130385556135E-04  6.15755393856935E-02
 cg2d: Sum(rhs),rhsMax =  -1.90381744546230E-04  6.16188406714724E-02
 cg2d: Sum(rhs),rhsMax =  -1.91625466224192E-04  6.16620967912741E-02
 cg2d: Sum(rhs),rhsMax =  -1.92861581371342E-04  6.17053076796772E-02
 cg2d: Sum(rhs),rhsMax =  -1.94090121054449E-04  6.17484732717347E-02
 cg2d: Sum(rhs),rhsMax =  -1.95311116412876E-04  6.17915935027101E-02
 cg2d: Sum(rhs),rhsMax =  -1.96524598525535E-04  6.18346683079723E-02
 cg2d: Sum(rhs),rhsMax =  -1.97730598304101E-04  6.18776976230079E-02
 cg2d: Sum(rhs),rhsMax =  -1.98929146586788E-04  6.19206813834500E-02
 cg2d: Sum(rhs),rhsMax =  -2.00120274597166E-04  6.19636195250875E-02
 cg2d: Sum(rhs),rhsMax =  -2.01304013365135E-04  6.20065119838641E-02
 cg2d: Sum(rhs),rhsMax =  -2.02480393698440E-04  6.20493586958713E-02
 cg2d: Sum(rhs),rhsMax =  -2.03649446433807E-04  6.20921595973506E-02
 cg2d: Sum(rhs),rhsMax =  -2.04811202359621E-04  6.21349146246901E-02
 cg2d: Sum(rhs),rhsMax =  -2.05965692565122E-04  6.21776237144282E-02
 cg2d: Sum(rhs),rhsMax =  -2.07112947690789E-04  6.22202868032532E-02
 cg2d: Sum(rhs),rhsMax =  -2.08252998644541E-04  6.22629038280062E-02
 cg2d: Sum(rhs),rhsMax =  -2.09385875806659E-04  6.23054747256804E-02
 cg2d: Sum(rhs),rhsMax =  -2.10511610235945E-04  6.23479994334219E-02
 cg2d: Sum(rhs),rhsMax =  -2.11630232621142E-04  6.23904778885296E-02
 cg2d: Sum(rhs),rhsMax =  -2.12741773415213E-04  6.24329100284544E-02
 cg2d: Sum(rhs),rhsMax =  -2.13846263354859E-04  6.24752957908019E-02
(PID.TID 0000.0001)      cg2d_init_res =   6.15521664171616E-03
(PID.TID 0000.0001)      cg2d_iters(min,last) =      -1      79
(PID.TID 0000.0001)      cg2d_last_res =   9.24472226065065E-08
(PID.TID 0000.0001) // =======================================================
(PID.TID 0000.0001) // Begin MONITOR dynamic field statistics
(PID.TID 0000.0001) // =======================================================
(PID.TID 0000.0001) %MON time_tsnumber                =                  1224
(PID.TID 0000.0001) %MON time_secondsf                =   1.4688000000000E+06
(PID.TID 0000.0001) %MON dynstat_eta_max              =   4.2404732588308E-02
(PID.TID 0000.0001) %MON dynstat_eta_min              =  -2.5160719963355E-02
(PID.TID 0000.0001) %MON dynstat_eta_mean             =   6.7154441618238E-08
(PID.TID 0000.0001) %MON dynstat_eta_sd               =   1.9568034445761E-02
(PID.TID 0000.0001) %MON dynstat_eta_del2             =   5.0672481191950E-06
(PID.TID 0000.0001) %MON dynstat_uvel_max             =   2.4453042176853E-02
(PID.TID 0000.0001) %MON dynstat_uvel_min             =  -9.8698236130902E-03
(PID.TID 0000.0001) %MON dynstat_uvel_mean            =  -2.9803409741318E-07
(PID.TID 0000.0001) %MON dynstat_uvel_sd              =   8.2032452814758E-03
(PID.TID 0000.0001) %MON dynstat_uvel_del2            =   1.1011943215841E-05
(PID.TID 0000.0001) %MON dynstat_vvel_max             =   3.6148124543396E-02
(PID.TID 0000.0001) %MON dynstat_vvel_min             =  -1.0903972725436E-02
(PID.TID 0000.0001) %MON dynstat_vvel_mean            =   5.0615176314832E-07
(PID.TID 0000.0001) %MON dynstat_vvel_sd              =   8.7985703364062E-03
(PID.TID 0000.0001) %MON dynstat_vvel_del2            =   2.1071924685931E-05
(PID.TID 0000.0001) %MON dynstat_wvel_max             =   3.4065451015999E-08
(PID.TID 0000.0001) %MON dynstat_wvel_min             =  -1.2235178497103E-08
(PID.TID 0000.0001) %MON dynstat_wvel_mean            =  -2.3810798666091E-21
(PID.TID 0000.0001) %MON dynstat_wvel_sd              =   1.2986391807333E-08
(PID.TID 0000.0001) %MON dynstat_wvel_del2            =   4.8449389839629E-12
(PID.TID 0000.0001) %MON dynstat_theta_max            =   2.0000000000000E+01
(PID.TID 0000.0001) %MON dynstat_theta_min            =   2.0000000000000E+01
(PID.TID 0000.0001) %MON dynstat_theta_mean           =   2.0000000000000E+01
(PID.TID 0000.0001) %MON dynstat_theta_sd             =   3.8014036363165E-13
(PID.TID 0000.0001) %MON dynstat_theta_del2           =   0.0000000000000E+00
(PID.TID 0000.0001) %MON dynstat_salt_max             =   3.0000000000000E+01
(PID.TID 0000.0001) %MON dynstat_salt_min             =   3.0000000000000E+01
(PID.TID 0000.0001) %MON dynstat_salt_mean            =   2.9999999999999E+01
(PID.TID 0000.0001) %MON dynstat_salt_sd              =   5.5777604757167E-13
(PID.TID 0000.0001) %MON dynstat_salt_del2            =   0.0000000000000E+00
(PID.TID 0000.0001) %MON trAdv_CFL_u_max              =   1.4648857859264E-03
(PID.TID 0000.0001) %MON trAdv_CFL_v_max              =   2.1671528544764E-03
(PID.TID 0000.0001) %MON trAdv_CFL_w_max              =   8.7007921892247E-09
(PID.TID 0000.0001) %MON advcfl_uvel_max              =   1.4671825306112E-03
(PID.TID 0000.0001) %MON advcfl_vvel_max              =   2.1688874726037E-03
(PID.TID 0000.0001) %MON advcfl_wvel_max              =   1.6351416487680E-08
(PID.TID 0000.0001) %MON advcfl_W_hf_max              =   0.0000000000000E+00
(PID.TID 0000.0001) %MON pe_b_mean                    =   3.9257053683818E-07
(PID.TID 0000.0001) %MON ke_max                       =   6.5226534363994E-04
(PID.TID 0000.0001) %MON ke_mean                      =   7.1023546127586E-05
(PID.TID 0000.0001) %MON ke_vol                       =   6.8893493896486E+15
(PID.TID 0000.0001) %MON vort_r_min                   =  -2.3557041748722E-07
(PID.TID 0000.0001) %MON vort_r_max                   =   1.1093653399934E-06
(PID.TID 0000.0001) %MON vort_a_mean                  =   1.0600000000000E-04
(PID.TID 0000.0001) %MON vort_a_sd                    =   3.5207186666157E-06
(PID.TID 0000.0001) %MON vort_p_mean                  =   1.1652272308690E-04
(PID.TID 0000.0001) %MON vort_p_sd                    =   4.1664658796338E-05
(PID.TID 0000.0001) %MON surfExpan_theta_mean         =  -4.7708997246648E-20
(PID.TID 0000.0001) %MON surfExpan_salt_mean          =  -7.1577233029529E-20
(PID.TID 0000.0001) // =======================================================
(PID.TID 0000.0001) // End MONITOR dynamic field statistics
(PID.TID 0000.0001) // =======================================================
 cg2d: Sum(rhs),rhsMax =  -2.14943733046900E-04  6.25176351133276E-02
 cg2d: Sum(rhs),rhsMax =  -2.16034212942879E-04  6.25599279339429E-02
 cg2d: Sum(rhs),rhsMax =  -2.17117733609849E-04  6.26021741907103E-02
 cg2d: Sum(rhs),rhsMax =  -2.18194325714131E-04  6.26443738218485E-02
 cg2d: Sum(rhs),rhsMax =  -2.19264019788803E-04  6.26865267657286E-02
 cg2d: Sum(rhs),rhsMax =  -2.20326845848613E-04  6.27286329608782E-02
 cg2d: Sum(rhs),rhsMax =  -2.21382834423148E-04  6.27706923459779E-02
 cg2d: Sum(rhs),rhsMax =  -2.22432016574022E-04  6.28127048598659E-02
 cg2d: Sum(rhs),rhsMax =  -2.23474421892557E-04  6.28546704415340E-02
 cg2d: Sum(rhs),rhsMax =  -2.24510080535718E-04  6.28965890301318E-02
 cg2d: Sum(rhs),rhsMax =  -2.25539023502315E-04  6.29384605649630E-02
 cg2d: Sum(rhs),rhsMax =  -2.26561280384244E-04  6.29802849854886E-02
 cg2d: Sum(rhs),rhsMax =  -2.27576881956001E-04  6.30220622313264E-02
 cg2d: Sum(rhs),rhsMax =  -2.28585858193606E-04  6.30637922422518E-02
 cg2d: Sum(rhs),rhsMax =  -2.29588239153505E-04  6.31054749581952E-02
 cg2d: Sum(rhs),rhsMax =  -2.30584054677269E-04  6.31471103192481E-02
 cg2d: Sum(rhs),rhsMax =  -2.31573335402566E-04  6.31886982656551E-02
 cg2d: Sum(rhs),rhsMax =  -2.32556110962952E-04  6.32302387378248E-02
 cg2d: Sum(rhs),rhsMax =  -2.33532411639308E-04  6.32717316763181E-02
 cg2d: Sum(rhs),rhsMax =  -2.34502267152232E-04  6.33131770218600E-02
 cg2d: Sum(rhs),rhsMax =  -2.35465707657555E-04  6.33545747153309E-02
 cg2d: Sum(rhs),rhsMax =  -2.36422763309031E-04  6.33959246977730E-02
 cg2d: Sum(rhs),rhsMax =  -2.37373463173794E-04  6.34372269103853E-02
 cg2d: Sum(rhs),rhsMax =  -2.38317837970931E-04  6.34784812945295E-02
 cg2d: Sum(rhs),rhsMax =  -2.39255916804688E-04  6.35196877917251E-02
 cg2d: Sum(rhs),rhsMax =  -2.40187730009202E-04  6.35608463436542E-02
 cg2d: Sum(rhs),rhsMax =  -2.41113306994278E-04  6.36019568921575E-02
 cg2d: Sum(rhs),rhsMax =  -2.42032677624668E-04  6.36430193792394E-02
 cg2d: Sum(rhs),rhsMax =  -2.42988309829106E-04  6.36840337329955E-02
 cg2d: Sum(rhs),rhsMax =  -2.43937494590285E-04  6.37249999289150E-02
 cg2d: Sum(rhs),rhsMax =  -2.44880244719688E-04  6.37659178875842E-02
 cg2d: Sum(rhs),rhsMax =  -2.45816590218401E-04  6.38067875512870E-02
 cg2d: Sum(rhs),rhsMax =  -2.46746565029137E-04  6.38476088661759E-02
 cg2d: Sum(rhs),rhsMax =  -2.47670202444403E-04  6.38883817758149E-02
 cg2d: Sum(rhs),rhsMax =  -2.48587534692236E-04  6.39291062227723E-02
 cg2d: Sum(rhs),rhsMax =  -2.49498593757294E-04  6.39697821500512E-02
 cg2d: Sum(rhs),rhsMax =  -2.50403410724784E-04  6.40104095011342E-02
 cg2d: Sum(rhs),rhsMax =  -2.51302017416438E-04  6.40509882197247E-02
 cg2d: Sum(rhs),rhsMax =  -2.52194445415160E-04  6.40915182496418E-02
 cg2d: Sum(rhs),rhsMax =  -2.53080726312437E-04  6.41319995348338E-02
 cg2d: Sum(rhs),rhsMax =  -2.53960891334885E-04  6.41724320194100E-02
 cg2d: Sum(rhs),rhsMax =  -2.54834971956334E-04  6.42128156476541E-02
 cg2d: Sum(rhs),rhsMax =  -2.55702999717774E-04  6.42531503640213E-02
 cg2d: Sum(rhs),rhsMax =  -2.56565005890975E-04  6.42934361131323E-02
 cg2d: Sum(rhs),rhsMax =  -2.57421021759782E-04  6.43336728397724E-02
 cg2d: Sum(rhs),rhsMax =  -2.58271078367893E-04  6.43738604888884E-02
 cg2d: Sum(rhs),rhsMax =  -2.59115207058989E-04  6.44139990055918E-02
 cg2d: Sum(rhs),rhsMax =  -2.59953438656004E-04  6.44540883351604E-02
 cg2d: Sum(rhs),rhsMax =  -2.60785804623978E-04  6.44941284230403E-02
 cg2d: Sum(rhs),rhsMax =  -2.61612335272464E-04  6.45341192148425E-02
 cg2d: Sum(rhs),rhsMax =  -2.62433062134554E-04  6.45740606563505E-02
 cg2d: Sum(rhs),rhsMax =  -2.63248015924103E-04  6.46139526935129E-02
 cg2d: Sum(rhs),rhsMax =  -2.64057227311584E-04  6.46537952724463E-02
 cg2d: Sum(rhs),rhsMax =  -2.64860727106027E-04  6.46935883394364E-02
 cg2d: Sum(rhs),rhsMax =  -2.65658545985779E-04  6.47333318409362E-02
 cg2d: Sum(rhs),rhsMax =  -2.66450714602118E-04  6.47730257235668E-02
 cg2d: Sum(rhs),rhsMax =  -2.67237263840248E-04  6.48126699341182E-02
 cg2d: Sum(rhs),rhsMax =  -2.68018223824020E-04  6.48522644195498E-02
 cg2d: Sum(rhs),rhsMax =  -2.68793625200284E-04  6.48918091269875E-02
 cg2d: Sum(rhs),rhsMax =  -2.69563498296335E-04  6.49313040037315E-02
 cg2d: Sum(rhs),rhsMax =  -2.70327873720350E-04  6.49707489972482E-02
 cg2d: Sum(rhs),rhsMax =  -2.71086781498588E-04  6.50101440551744E-02
 cg2d: Sum(rhs),rhsMax =  -2.71840252164306E-04  6.50494891253198E-02
 cg2d: Sum(rhs),rhsMax =  -2.72588315703252E-04  6.50887841556624E-02
 cg2d: Sum(rhs),rhsMax =  -2.73331002141244E-04  6.51280290943518E-02
 cg2d: Sum(rhs),rhsMax =  -2.74068341820859E-04  6.51672238897087E-02
 cg2d: Sum(rhs),rhsMax =  -2.74800364745476E-04  6.52063684902250E-02
 cg2d: Sum(rhs),rhsMax =  -2.75527100931490E-04  6.52454628445635E-02
 cg2d: Sum(rhs),rhsMax =  -2.76248580079335E-04  6.52845069015613E-02
 cg2d: Sum(rhs),rhsMax =  -2.76964832123316E-04  6.53235006102232E-02
 cg2d: Sum(rhs),rhsMax =  -2.77675887031960E-04  6.53624439197295E-02
 cg2d: Sum(rhs),rhsMax =  -2.78381774123166E-04  6.54013367794333E-02
(PID.TID 0000.0001)      cg2d_init_res =   5.78451565145437E-03
(PID.TID 0000.0001)      cg2d_iters(min,last) =      -1      78
(PID.TID 0000.0001)      cg2d_last_res =   9.25658021639109E-08
(PID.TID 0000.0001) // =======================================================
(PID.TID 0000.0001) // Begin MONITOR dynamic field statistics
(PID.TID 0000.0001) // =======================================================
(PID.TID 0000.0001) %MON time_tsnumber                =                  1296
(PID.TID 0000.0001) %MON time_secondsf                =   1.5552000000000E+06
(PID.TID 0000.0001) %MON dynstat_eta_max              =   4.4726133399685E-02
(PID.TID 0000.0001) %MON dynstat_eta_min              =  -2.5962791245500E-02
(PID.TID 0000.0001) %MON dynstat_eta_mean             =   9.1269261178859E-08
(PID.TID 0000.0001) %MON dynstat_eta_sd               =   2.0463344168523E-02
(PID.TID 0000.0001) %MON dynstat_eta_del2             =   5.4429102524174E-06
(PID.TID 0000.0001) %MON dynstat_uvel_max             =   2.6383522525396E-02
(PID.TID 0000.0001) %MON dynstat_uvel_min             =  -1.0003875173207E-02
(PID.TID 0000.0001) %MON dynstat_uvel_mean            =  -2.5721995862098E-07
(PID.TID 0000.0001) %MON dynstat_uvel_sd              =   8.6310049579387E-03
(PID.TID 0000.0001) %MON dynstat_uvel_del2            =   1.1724303499451E-05
(PID.TID 0000.0001) %MON dynstat_vvel_max             =   3.8164668677780E-02
(PID.TID 0000.0001) %MON dynstat_vvel_min             =  -1.1592350654419E-02
(PID.TID 0000.0001) %MON dynstat_vvel_mean            =   5.1794942906855E-07
(PID.TID 0000.0001) %MON dynstat_vvel_sd              =   9.1741010963082E-03
(PID.TID 0000.0001) %MON dynstat_vvel_del2            =   2.2380716855368E-05
(PID.TID 0000.0001) %MON dynstat_wvel_max             =   3.3625341927655E-08
(PID.TID 0000.0001) %MON dynstat_wvel_min             =  -1.2626507830282E-08
(PID.TID 0000.0001) %MON dynstat_wvel_mean            =   5.6293275621202E-22
(PID.TID 0000.0001) %MON dynstat_wvel_sd              =   1.2793599683926E-08
(PID.TID 0000.0001) %MON dynstat_wvel_del2            =   4.8970725166923E-12
(PID.TID 0000.0001) %MON dynstat_theta_max            =   2.0000000000000E+01
(PID.TID 0000.0001) %MON dynstat_theta_min            =   2.0000000000000E+01
(PID.TID 0000.0001) %MON dynstat_theta_mean           =   2.0000000000000E+01
(PID.TID 0000.0001) %MON dynstat_theta_sd             =   3.8014036363165E-13
(PID.TID 0000.0001) %MON dynstat_theta_del2           =   0.0000000000000E+00
(PID.TID 0000.0001) %MON dynstat_salt_max             =   3.0000000000000E+01
(PID.TID 0000.0001) %MON dynstat_salt_min             =   3.0000000000000E+01
(PID.TID 0000.0001) %MON dynstat_salt_mean            =   2.9999999999999E+01
(PID.TID 0000.0001) %MON dynstat_salt_sd              =   5.5777604757167E-13
(PID.TID 0000.0001) %MON dynstat_salt_del2            =   0.0000000000000E+00
(PID.TID 0000.0001) %MON trAdv_CFL_u_max              =   1.5805567925946E-03
(PID.TID 0000.0001) %MON trAdv_CFL_v_max              =   2.2881920200154E-03
(PID.TID 0000.0001) %MON trAdv_CFL_w_max              =   8.6039299849517E-09
(PID.TID 0000.0001) %MON advcfl_uvel_max              =   1.5830113515237E-03
(PID.TID 0000.0001) %MON advcfl_vvel_max              =   2.2898801206668E-03
(PID.TID 0000.0001) %MON advcfl_wvel_max              =   1.6140164125274E-08
(PID.TID 0000.0001) %MON advcfl_W_hf_max              =   0.0000000000000E+00
(PID.TID 0000.0001) %MON pe_b_mean                    =   4.2931544286997E-07
(PID.TID 0000.0001) %MON ke_max                       =   7.2810491700847E-04
(PID.TID 0000.0001) %MON ke_mean                      =   7.7870434924960E-05
(PID.TID 0000.0001) %MON ke_vol                       =   6.8893493896486E+15
(PID.TID 0000.0001) %MON vort_r_min                   =  -2.5408798139319E-07
(PID.TID 0000.0001) %MON vort_r_max                   =   1.1510190280839E-06
(PID.TID 0000.0001) %MON vort_a_mean                  =   1.0600000000000E-04
(PID.TID 0000.0001) %MON vort_a_sd                    =   3.5210268885565E-06
(PID.TID 0000.0001) %MON vort_p_mean                  =   1.1652272308690E-04
(PID.TID 0000.0001) %MON vort_p_sd                    =   4.1669296406476E-05
(PID.TID 0000.0001) %MON surfExpan_theta_mean         =   1.1185511776072E-20
(PID.TID 0000.0001) %MON surfExpan_salt_mean          =   1.6751745669631E-20
(PID.TID 0000.0001) // =======================================================
(PID.TID 0000.0001) // End MONITOR dynamic field statistics
(PID.TID 0000.0001) // =======================================================
 cg2d: Sum(rhs),rhsMax =  -2.79082523729962E-04  6.54401791388592E-02
 cg2d: Sum(rhs),rhsMax =  -2.79778165067902E-04  6.54789709477041E-02
 cg2d: Sum(rhs),rhsMax =  -2.80468727917524E-04  6.55177121558405E-02
 cg2d: Sum(rhs),rhsMax =  -2.81154241597196E-04  6.55564027133132E-02
 cg2d: Sum(rhs),rhsMax =  -2.81834735729944E-04  6.55950425703404E-02
 cg2d: Sum(rhs),rhsMax =  -2.82510239733042E-04  6.56336316773140E-02
 cg2d: Sum(rhs),rhsMax =  -2.83180783068021E-04  6.56721699848028E-02
 cg2d: Sum(rhs),rhsMax =  -2.83846394772372E-04  6.57106574435460E-02
 cg2d: Sum(rhs),rhsMax =  -2.84507104154917E-04  6.57490940044619E-02
 cg2d: Sum(rhs),rhsMax =  -2.85162940468844E-04  6.57874796186397E-02
 cg2d: Sum(rhs),rhsMax =  -2.85813932860392E-04  6.58258142373467E-02
 cg2d: Sum(rhs),rhsMax =  -2.86460110455012E-04  6.58640978120242E-02
 cg2d: Sum(rhs),rhsMax =  -2.87101501920756E-04  6.59023302942889E-02
 cg2d: Sum(rhs),rhsMax =  -2.87738136679812E-04  6.59405116359353E-02
 cg2d: Sum(rhs),rhsMax =  -2.88370043611555E-04  6.59786417889329E-02
 cg2d: Sum(rhs),rhsMax =  -2.88997251307335E-04  6.60167207054266E-02
 cg2d: Sum(rhs),rhsMax =  -2.89619788456472E-04  6.60547483377383E-02
 cg2d: Sum(rhs),rhsMax =  -2.90237684311322E-04  6.60927246383690E-02
 cg2d: Sum(rhs),rhsMax =  -2.90850967222055E-04  6.61306495599938E-02
 cg2d: Sum(rhs),rhsMax =  -2.91459665819643E-04  6.61685230554664E-02
 cg2d: Sum(rhs),rhsMax =  -2.92063808789430E-04  6.62063450778189E-02
 cg2d: Sum(rhs),rhsMax =  -2.92663424649949E-04  6.62441155802592E-02
 cg2d: Sum(rhs),rhsMax =  -2.93258541550823E-04  6.62818345161740E-02
 cg2d: Sum(rhs),rhsMax =  -2.93849188403500E-04  6.63195018391293E-02
 cg2d: Sum(rhs),rhsMax =  -2.94435393079034E-04  6.63571175028680E-02
 cg2d: Sum(rhs),rhsMax =  -2.95017184152282E-04  6.63946814613119E-02
 cg2d: Sum(rhs),rhsMax =  -2.95590185388495E-04  6.64331835321664E-02
 cg2d: Sum(rhs),rhsMax =  -2.96155407912738E-04  6.64723990555748E-02
 cg2d: Sum(rhs),rhsMax =  -2.96716268608842E-04  6.65115654037633E-02
 cg2d: Sum(rhs),rhsMax =  -2.97272795923415E-04  6.65506825267075E-02
 cg2d: Sum(rhs),rhsMax =  -2.97825018125530E-04  6.65897503745485E-02
 cg2d: Sum(rhs),rhsMax =  -2.98372963605457E-04  6.66287688975904E-02
 cg2d: Sum(rhs),rhsMax =  -2.98916660670234E-04  6.66677380463026E-02
 cg2d: Sum(rhs),rhsMax =  -2.99456137361518E-04  6.67066577713198E-02
 cg2d: Sum(rhs),rhsMax =  -2.99991421641038E-04  6.67455280234415E-02
 cg2d: Sum(rhs),rhsMax =  -3.00522541674366E-04  6.67843487536328E-02
 cg2d: Sum(rhs),rhsMax =  -3.01049525507198E-04  6.68231199130221E-02
 cg2d: Sum(rhs),rhsMax =  -3.01572401167120E-04  6.68618414529086E-02
 cg2d: Sum(rhs),rhsMax =  -3.02091196168419E-04  6.69005133247506E-02
 cg2d: Sum(rhs),rhsMax =  -3.02605938671867E-04  6.69391354801792E-02
 cg2d: Sum(rhs),rhsMax =  -3.03116656237973E-04  6.69777078709882E-02
 cg2d: Sum(rhs),rhsMax =  -3.03623376922205E-04  6.70162304491388E-02
 cg2d: Sum(rhs),rhsMax =  -3.04126127853546E-04  6.70547031667593E-02
 cg2d: Sum(rhs),rhsMax =  -3.04624936976586E-04  6.70931259761456E-02
 cg2d: Sum(rhs),rhsMax =  -3.05119831789581E-04  6.71314988297604E-02
 cg2d: Sum(rhs),rhsMax =  -3.05610839175123E-04  6.71698216802328E-02
 cg2d: Sum(rhs),rhsMax =  -3.06097987230542E-04  6.72080944803617E-02
 cg2d: Sum(rhs),rhsMax =  -3.06581303226035E-04  6.72463171831127E-02
 cg2d: Sum(rhs),rhsMax =  -3.07060814063571E-04  6.72844897416214E-02
 cg2d: Sum(rhs),rhsMax =  -3.07536547231479E-04  6.73226121091885E-02
 cg2d: Sum(rhs),rhsMax =  -3.08008529908737E-04  6.73606842392848E-02
 cg2d: Sum(rhs),rhsMax =  -3.08476789121607E-04  6.73987060855525E-02
 cg2d: Sum(rhs),rhsMax =  -3.08941352031519E-04  6.74366776017999E-02
 cg2d: Sum(rhs),rhsMax =  -3.09402245371699E-04  6.74745987420041E-02
 cg2d: Sum(rhs),rhsMax =  -3.09859496422531E-04  6.75124694603141E-02
 cg2d: Sum(rhs),rhsMax =  -3.10313131765737E-04  6.75502897110479E-02
 cg2d: Sum(rhs),rhsMax =  -3.10763178584712E-04  6.75880594486921E-02
 cg2d: Sum(rhs),rhsMax =  -3.11209663280902E-04  6.76257786279040E-02
 cg2d: Sum(rhs),rhsMax =  -3.11652612826480E-04  6.76634472035115E-02
 cg2d: Sum(rhs),rhsMax =  -3.12092053891398E-04  6.77010651305146E-02
 cg2d: Sum(rhs),rhsMax =  -3.12528012772859E-04  6.77386323640797E-02
 cg2d: Sum(rhs),rhsMax =  -3.12960516063117E-04  6.77761488595481E-02
 cg2d: Sum(rhs),rhsMax =  -3.13389590588985E-04  6.78136145724322E-02
 cg2d: Sum(rhs),rhsMax =  -3.13815262498136E-04  6.78510294584126E-02
 cg2d: Sum(rhs),rhsMax =  -3.14237557933417E-04  6.78883934733442E-02
 cg2d: Sum(rhs),rhsMax =  -3.14656503545417E-04  6.79257065732523E-02
 cg2d: Sum(rhs),rhsMax =  -3.15072125641500E-04  6.79629687143349E-02
 cg2d: Sum(rhs),rhsMax =  -3.15484450013198E-04  6.80001798529629E-02
 cg2d: Sum(rhs),rhsMax =  -3.15893503104740E-04  6.80373399456767E-02
 cg2d: Sum(rhs),rhsMax =  -3.16299310667047E-04  6.80744489491924E-02
 cg2d: Sum(rhs),rhsMax =  -3.16701899128288E-04  6.81115068203972E-02
 cg2d: Sum(rhs),rhsMax =  -3.17101294220360E-04  6.81485135163520E-02
(PID.TID 0000.0001)      cg2d_init_res =   5.45612110534555E-03
(PID.TID 0000.0001)      cg2d_iters(min,last) =      -1      78
(PID.TID 0000.0001)      cg2d_last_res =   8.47933314444272E-08
(PID.TID 0000.0001) // =======================================================
(PID.TID 0000.0001) // Begin MONITOR dynamic field statistics
(PID.TID 0000.0001) // =======================================================
(PID.TID 0000.0001) %MON time_tsnumber                =                  1368
(PID.TID 0000.0001) %MON time_secondsf                =   1.6416000000000E+06
(PID.TID 0000.0001) %MON dynstat_eta_max              =   4.6938182987825E-02
(PID.TID 0000.0001) %MON dynstat_eta_min              =  -2.6725432930779E-02
(PID.TID 0000.0001) %MON dynstat_eta_mean             =   1.0818812283384E-07
(PID.TID 0000.0001) %MON dynstat_eta_sd               =   2.1330857564004E-02
(PID.TID 0000.0001) %MON dynstat_eta_del2             =   5.8180868865285E-06
(PID.TID 0000.0001) %MON dynstat_uvel_max             =   2.8340981664596E-02
(PID.TID 0000.0001) %MON dynstat_uvel_min             =  -1.0254775625326E-02
(PID.TID 0000.0001) %MON dynstat_uvel_mean            =  -2.1576558048774E-07
(PID.TID 0000.0001) %MON dynstat_uvel_sd              =   9.0600463749916E-03
(PID.TID 0000.0001) %MON dynstat_uvel_del2            =   1.2458621135344E-05
(PID.TID 0000.0001) %MON dynstat_vvel_max             =   4.0120536583912E-02
(PID.TID 0000.0001) %MON dynstat_vvel_min             =  -1.2302041539115E-02
(PID.TID 0000.0001) %MON dynstat_vvel_mean            =   5.2317878879685E-07
(PID.TID 0000.0001) %MON dynstat_vvel_sd              =   9.5273673729077E-03
(PID.TID 0000.0001) %MON dynstat_vvel_del2            =   2.3627787518467E-05
(PID.TID 0000.0001) %MON dynstat_wvel_max             =   3.3110233817497E-08
(PID.TID 0000.0001) %MON dynstat_wvel_min             =  -1.3126327814607E-08
(PID.TID 0000.0001) %MON dynstat_wvel_mean            =   1.0992708767945E-21
(PID.TID 0000.0001) %MON dynstat_wvel_sd              =   1.2594263363616E-08
(PID.TID 0000.0001) %MON dynstat_wvel_del2            =   4.9389105036542E-12
(PID.TID 0000.0001) %MON dynstat_theta_max            =   2.0000000000000E+01
(PID.TID 0000.0001) %MON dynstat_theta_min            =   2.0000000000000E+01
(PID.TID 0000.0001) %MON dynstat_theta_mean           =   2.0000000000000E+01
(PID.TID 0000.0001) %MON dynstat_theta_sd             =   3.8014036363165E-13
(PID.TID 0000.0001) %MON dynstat_theta_del2           =   0.0000000000000E+00
(PID.TID 0000.0001) %MON dynstat_salt_max             =   3.0000000000000E+01
(PID.TID 0000.0001) %MON dynstat_salt_min             =   3.0000000000000E+01
(PID.TID 0000.0001) %MON dynstat_salt_mean            =   2.9999999999999E+01
(PID.TID 0000.0001) %MON dynstat_salt_sd              =   5.5777604757167E-13
(PID.TID 0000.0001) %MON dynstat_salt_del2            =   0.0000000000000E+00
(PID.TID 0000.0001) %MON trAdv_CFL_u_max              =   1.6979256644787E-03
(PID.TID 0000.0001) %MON trAdv_CFL_v_max              =   2.4056610888135E-03
(PID.TID 0000.0001) %MON trAdv_CFL_w_max              =   8.4619508744248E-09
(PID.TID 0000.0001) %MON advcfl_uvel_max              =   1.7004588998758E-03
(PID.TID 0000.0001) %MON advcfl_vvel_max              =   2.4072321950347E-03
(PID.TID 0000.0001) %MON advcfl_wvel_max              =   1.5892912232399E-08
(PID.TID 0000.0001) %MON advcfl_W_hf_max              =   0.0000000000000E+00
(PID.TID 0000.0001) %MON pe_b_mean                    =   4.6648740771334E-07
(PID.TID 0000.0001) %MON ke_max                       =   8.0344818029877E-04
(PID.TID 0000.0001) %MON ke_mean                      =   8.4838301173653E-05
(PID.TID 0000.0001) %MON ke_vol                       =   6.8893493896486E+15
(PID.TID 0000.0001) %MON vort_r_min                   =  -2.7223974554582E-07
(PID.TID 0000.0001) %MON vort_r_max                   =   1.1884396006022E-06
(PID.TID 0000.0001) %MON vort_a_mean                  =   1.0600000000000E-04
(PID.TID 0000.0001) %MON vort_a_sd                    =   3.5213408731281E-06
(PID.TID 0000.0001) %MON vort_p_mean                  =   1.1652272308690E-04
(PID.TID 0000.0001) %MON vort_p_sd                    =   4.1673719339589E-05
(PID.TID 0000.0001) %MON surfExpan_theta_mean         =   2.1988277865148E-20
(PID.TID 0000.0001) %MON surfExpan_salt_mean          =   3.2919267312082E-20
(PID.TID 0000.0001) // =======================================================
(PID.TID 0000.0001) // End MONITOR dynamic field statistics
(PID.TID 0000.0001) // =======================================================
 cg2d: Sum(rhs),rhsMax =  -3.17497521729992E-04  6.81854689942895E-02
 cg2d: Sum(rhs),rhsMax =  -3.17890607867487E-04  6.82223732116177E-02
 cg2d: Sum(rhs),rhsMax =  -3.18280578014824E-04  6.82592261259174E-02
 cg2d: Sum(rhs),rhsMax =  -3.18667458175298E-04  6.82960276949410E-02
 cg2d: Sum(rhs),rhsMax =  -3.19051274112858E-04  6.83327778766187E-02
 cg2d: Sum(rhs),rhsMax =  -3.19432051006919E-04  6.83694766290523E-02
 cg2d: Sum(rhs),rhsMax =  -3.19809814673895E-04  6.84061239105173E-02
 cg2d: Sum(rhs),rhsMax =  -3.20184590680391E-04  6.84427196794668E-02
 cg2d: Sum(rhs),rhsMax =  -3.20556404376563E-04  6.84792638945253E-02
 cg2d: Sum(rhs),rhsMax =  -3.20925281370777E-04  6.85157565144948E-02
 cg2d: Sum(rhs),rhsMax =  -3.21291246590923E-04  6.85521974983491E-02
 cg2d: Sum(rhs),rhsMax =  -3.21654325600051E-04  6.85885868052403E-02
 cg2d: Sum(rhs),rhsMax =  -3.22014543470028E-04  6.86249243944954E-02
 cg2d: Sum(rhs),rhsMax =  -3.22371925564325E-04  6.86612102256170E-02
 cg2d: Sum(rhs),rhsMax =  -3.22726496956503E-04  6.86974442582821E-02
 cg2d: Sum(rhs),rhsMax =  -3.23078282425285E-04  6.87336264523444E-02
 cg2d: Sum(rhs),rhsMax =  -3.23427307091471E-04  6.87697567678356E-02
 cg2d: Sum(rhs),rhsMax =  -3.23773595993442E-04  6.88058351649608E-02
 cg2d: Sum(rhs),rhsMax =  -3.24117174008216E-04  6.88418616041042E-02
 cg2d: Sum(rhs),rhsMax =  -3.24458066131857E-04  6.88778360458248E-02
 cg2d: Sum(rhs),rhsMax =  -3.24796296599639E-04  6.89137584508609E-02
 cg2d: Sum(rhs),rhsMax =  -3.25131890407629E-04  6.89496287801251E-02
 cg2d: Sum(rhs),rhsMax =  -3.25464872315315E-04  6.89854469947090E-02
 cg2d: Sum(rhs),rhsMax =  -3.25795266977194E-04  6.90212130558812E-02
 cg2d: Sum(rhs),rhsMax =  -3.26123098621588E-04  6.90569269250888E-02
 cg2d: Sum(rhs),rhsMax =  -3.26448392046326E-04  6.90925885639551E-02
 cg2d: Sum(rhs),rhsMax =  -3.26771171510254E-04  6.91281979342824E-02
 cg2d: Sum(rhs),rhsMax =  -3.27107492258501E-04  6.91637550617392E-02
 cg2d: Sum(rhs),rhsMax =  -3.27441254646538E-04  6.91992597840228E-02
 cg2d: Sum(rhs),rhsMax =  -3.27772484660524E-04  6.92347121225449E-02
 cg2d: Sum(rhs),rhsMax =  -3.28101199369751E-04  6.92701120393173E-02
 cg2d: Sum(rhs),rhsMax =  -3.28427425379883E-04  6.93054594996586E-02
 cg2d: Sum(rhs),rhsMax =  -3.28751188886530E-04  6.93407544667019E-02
 cg2d: Sum(rhs),rhsMax =  -3.29072515946976E-04  6.93759969029214E-02
 cg2d: Sum(rhs),rhsMax =  -3.29391430767881E-04  6.94111867713301E-02
 cg2d: Sum(rhs),rhsMax =  -3.29707958561402E-04  6.94463240353923E-02
 cg2d: Sum(rhs),rhsMax =  -3.30022123419045E-04  6.94814086587695E-02
 cg2d: Sum(rhs),rhsMax =  -3.30333950457538E-04  6.95164406052508E-02
 cg2d: Sum(rhs),rhsMax =  -3.30643464201974E-04  6.95514198387709E-02
 cg2d: Sum(rhs),rhsMax =  -3.30950689432900E-04  6.95863463234491E-02
 cg2d: Sum(rhs),rhsMax =  -3.31255650558516E-04  6.96212200235936E-02
 cg2d: Sum(rhs),rhsMax =  -3.31558371827273E-04  6.96560409037053E-02
 cg2d: Sum(rhs),rhsMax =  -3.31858878236085E-04  6.96908089284615E-02
 cg2d: Sum(rhs),rhsMax =  -3.32157193645821E-04  6.97255240627221E-02
 cg2d: Sum(rhs),rhsMax =  -3.32453342544756E-04  6.97601862715242E-02
 cg2d: Sum(rhs),rhsMax =  -3.32747349089026E-04  6.97947955200793E-02
 cg2d: Sum(rhs),rhsMax =  -3.33039237696245E-04  6.98293517737843E-02
 cg2d: Sum(rhs),rhsMax =  -3.33329032385879E-04  6.98638549982160E-02
 cg2d: Sum(rhs),rhsMax =  -3.33616756933112E-04  6.98983051591351E-02
 cg2d: Sum(rhs),rhsMax =  -3.33902435806464E-04  6.99327022224846E-02
 cg2d: Sum(rhs),rhsMax =  -3.34186092968210E-04  6.99670461543894E-02
 cg2d: Sum(rhs),rhsMax =  -3.34467752061082E-04  7.00013369211581E-02
 cg2d: Sum(rhs),rhsMax =  -3.34747437269464E-04  7.00355744892792E-02
 cg2d: Sum(rhs),rhsMax =  -3.35025172105055E-04  7.00697588254278E-02
 cg2d: Sum(rhs),rhsMax =  -3.35300980125387E-04  7.01038898964567E-02
 cg2d: Sum(rhs),rhsMax =  -3.35574885420315E-04  7.01379676694025E-02
 cg2d: Sum(rhs),rhsMax =  -3.35846911628999E-04  7.01719921114867E-02
 cg2d: Sum(rhs),rhsMax =  -3.36117082213719E-04  7.02059631901103E-02
 cg2d: Sum(rhs),rhsMax =  -3.36385420577522E-04  7.02398808728613E-02
 cg2d: Sum(rhs),rhsMax =  -3.36651950354393E-04  7.02737451275082E-02
 cg2d: Sum(rhs),rhsMax =  -3.36916694716811E-04  7.03075559220047E-02
 cg2d: Sum(rhs),rhsMax =  -3.37179677383909E-04  7.03413132244878E-02
 cg2d: Sum(rhs),rhsMax =  -3.37440921450209E-04  7.03750170032780E-02
 cg2d: Sum(rhs),rhsMax =  -3.37700450295037E-04  7.04086672268804E-02
 cg2d: Sum(rhs),rhsMax =  -3.37958287077316E-04  7.04422638639835E-02
 cg2d: Sum(rhs),rhsMax =  -3.38214454674850E-04  7.04758068834608E-02
 cg2d: Sum(rhs),rhsMax =  -3.38468976511557E-04  7.05092962543691E-02
 cg2d: Sum(rhs),rhsMax =  -3.38721875159990E-04  7.05427319459509E-02
 cg2d: Sum(rhs),rhsMax =  -3.38973174364321E-04  7.05761139276327E-02
 cg2d: Sum(rhs),rhsMax =  -3.39222896114797E-04  7.06094421690261E-02
 cg2d: Sum(rhs),rhsMax =  -3.39471064062069E-04  7.06427166399262E-02
 cg2d: Sum(rhs),rhsMax =  -3.39717700726865E-04  7.06759373103165E-02
(PID.TID 0000.0001)      cg2d_init_res =   5.16802083828764E-03
(PID.TID 0000.0001)      cg2d_iters(min,last) =      -1      77
(PID.TID 0000.0001)      cg2d_last_res =   9.66780587184829E-08
(PID.TID 0000.0001) // =======================================================
(PID.TID 0000.0001) // Begin MONITOR dynamic field statistics
(PID.TID 0000.0001) // =======================================================
(PID.TID 0000.0001) %MON time_tsnumber                =                  1440
(PID.TID 0000.0001) %MON time_secondsf                =   1.7280000000000E+06
(PID.TID 0000.0001) %MON dynstat_eta_max              =   4.9136381044301E-02
(PID.TID 0000.0001) %MON dynstat_eta_min              =  -2.7456544428032E-02
(PID.TID 0000.0001) %MON dynstat_eta_mean             =   1.2013074851356E-07
(PID.TID 0000.0001) %MON dynstat_eta_sd               =   2.2172030665732E-02
(PID.TID 0000.0001) %MON dynstat_eta_del2             =   6.1917464469886E-06
(PID.TID 0000.0001) %MON dynstat_uvel_max             =   3.0314925272802E-02
(PID.TID 0000.0001) %MON dynstat_uvel_min             =  -1.0579342030665E-02
(PID.TID 0000.0001) %MON dynstat_uvel_mean            =  -1.7491043193036E-07
(PID.TID 0000.0001) %MON dynstat_uvel_sd              =   9.4900384044891E-03
(PID.TID 0000.0001) %MON dynstat_uvel_del2            =   1.3214931478618E-05
(PID.TID 0000.0001) %MON dynstat_vvel_max             =   4.1954623738021E-02
(PID.TID 0000.0001) %MON dynstat_vvel_min             =  -1.3021842956331E-02
(PID.TID 0000.0001) %MON dynstat_vvel_mean            =   5.2203630198859E-07
(PID.TID 0000.0001) %MON dynstat_vvel_sd              =   9.8594008977594E-03
(PID.TID 0000.0001) %MON dynstat_vvel_del2            =   2.4806122122399E-05
(PID.TID 0000.0001) %MON dynstat_wvel_max             =   3.2517455982961E-08
(PID.TID 0000.0001) %MON dynstat_wvel_min             =  -1.3662687969554E-08
(PID.TID 0000.0001) %MON dynstat_wvel_mean            =   1.0841692225464E-21
(PID.TID 0000.0001) %MON dynstat_wvel_sd              =   1.2388512380811E-08
(PID.TID 0000.0001) %MON dynstat_wvel_del2            =   4.9721174981410E-12
(PID.TID 0000.0001) %MON dynstat_theta_max            =   2.0000000000000E+01
(PID.TID 0000.0001) %MON dynstat_theta_min            =   2.0000000000000E+01
(PID.TID 0000.0001) %MON dynstat_theta_mean           =   2.0000000000000E+01
(PID.TID 0000.0001) %MON dynstat_theta_sd             =   3.8014036363165E-13
(PID.TID 0000.0001) %MON dynstat_theta_del2           =   0.0000000000000E+00
(PID.TID 0000.0001) %MON dynstat_salt_max             =   3.0000000000000E+01
(PID.TID 0000.0001) %MON dynstat_salt_min             =   3.0000000000000E+01
(PID.TID 0000.0001) %MON dynstat_salt_mean            =   2.9999999999999E+01
(PID.TID 0000.0001) %MON dynstat_salt_sd              =   5.5777604757167E-13
(PID.TID 0000.0001) %MON dynstat_salt_del2            =   0.0000000000000E+00
(PID.TID 0000.0001) %MON trAdv_CFL_u_max              =   1.8162892593603E-03
(PID.TID 0000.0001) %MON trAdv_CFL_v_max              =   2.5157586103337E-03
(PID.TID 0000.0001) %MON trAdv_CFL_w_max              =   8.3138961861770E-09
(PID.TID 0000.0001) %MON advcfl_uvel_max              =   1.8188955163681E-03
(PID.TID 0000.0001) %MON advcfl_vvel_max              =   2.5172774242813E-03
(PID.TID 0000.0001) %MON advcfl_wvel_max              =   1.5608378871821E-08
(PID.TID 0000.0001) %MON advcfl_W_hf_max              =   0.0000000000000E+00
(PID.TID 0000.0001) %MON pe_b_mean                    =   5.0400429182254E-07
(PID.TID 0000.0001) %MON ke_max                       =   8.7935596542102E-04
(PID.TID 0000.0001) %MON ke_mean                      =   9.1912502309644E-05
(PID.TID 0000.0001) %MON ke_vol                       =   6.8893493896486E+15
(PID.TID 0000.0001) %MON vort_r_min                   =  -2.8990459802186E-07
(PID.TID 0000.0001) %MON vort_r_max                   =   1.2219946650544E-06
(PID.TID 0000.0001) %MON vort_a_mean                  =   1.0600000000000E-04
(PID.TID 0000.0001) %MON vort_a_sd                    =   3.5216588884531E-06
(PID.TID 0000.0001) %MON vort_p_mean                  =   1.1652272308690E-04
(PID.TID 0000.0001) %MON vort_p_sd                    =   4.1677941936191E-05
(PID.TID 0000.0001) %MON surfExpan_theta_mean         =   2.1532267327176E-20
(PID.TID 0000.0001) %MON surfExpan_salt_mean          =   3.2295884485241E-20
(PID.TID 0000.0001) // =======================================================
(PID.TID 0000.0001) // End MONITOR dynamic field statistics
(PID.TID 0000.0001) // =======================================================
 cg2d: Sum(rhs),rhsMax =  -3.39962828812448E-04  7.07091041503624E-02
 cg2d: Sum(rhs),rhsMax =  -3.40206470897279E-04  7.07422171304165E-02
 cg2d: Sum(rhs),rhsMax =  -3.40448650080583E-04  7.07752762210157E-02
 cg2d: Sum(rhs),rhsMax =  -3.40689388476451E-04  7.08082813928833E-02
 cg2d: Sum(rhs),rhsMax =  -3.40928709066664E-04  7.08412326169300E-02
 cg2d: Sum(rhs),rhsMax =  -3.41166634085479E-04  7.08741298642482E-02
 cg2d: Sum(rhs),rhsMax =  -3.41403186011620E-04  7.09069731061201E-02
 cg2d: Sum(rhs),rhsMax =  -3.41638386902286E-04  7.09397623140132E-02
 cg2d: Sum(rhs),rhsMax =  -3.41872259948976E-04  7.09724974595803E-02
 cg2d: Sum(rhs),rhsMax =  -3.42104826632959E-04  7.10051785146623E-02
 cg2d: Sum(rhs),rhsMax =  -3.42336109565456E-04  7.10378054512840E-02
 cg2d: Sum(rhs),rhsMax =  -3.42566130698031E-04  7.10703782416598E-02
 cg2d: Sum(rhs),rhsMax =  -3.42794912553523E-04  7.11028968581895E-02
 cg2d: Sum(rhs),rhsMax =  -3.43022476556348E-04  7.11353612734593E-02
 cg2d: Sum(rhs),rhsMax =  -3.43248845309174E-04  7.11677714602454E-02
 cg2d: Sum(rhs),rhsMax =  -3.43471611135029E-04  7.12006310049813E-02
 cg2d: Sum(rhs),rhsMax =  -3.43686073981189E-04  7.12349183082905E-02
 cg2d: Sum(rhs),rhsMax =  -3.43899392464431E-04  7.12691536941253E-02
 cg2d: Sum(rhs),rhsMax =  -3.44111588236089E-04  7.13033371301166E-02
 cg2d: Sum(rhs),rhsMax =  -3.44322683601718E-04  7.13374685840708E-02
 cg2d: Sum(rhs),rhsMax =  -3.44532700038074E-04  7.13715480239644E-02
 cg2d: Sum(rhs),rhsMax =  -3.44741659181760E-04  7.14055754179507E-02
 cg2d: Sum(rhs),rhsMax =  -3.44949582966419E-04  7.14395507343546E-02
 cg2d: Sum(rhs),rhsMax =  -3.45156493251182E-04  7.14734739416756E-02
 cg2d: Sum(rhs),rhsMax =  -3.45362411061464E-04  7.15073450085860E-02
 cg2d: Sum(rhs),rhsMax =  -3.45567358321076E-04  7.15411639039340E-02
 cg2d: Sum(rhs),rhsMax =  -3.45771356760262E-04  7.15749305967407E-02
 cg2d: Sum(rhs),rhsMax =  -3.45974427185886E-04  7.16086450562034E-02
 cg2d: Sum(rhs),rhsMax =  -3.46176591302910E-04  7.16423072516895E-02
 cg2d: Sum(rhs),rhsMax =  -3.46377870666204E-04  7.16759171527455E-02
 cg2d: Sum(rhs),rhsMax =  -3.46578286338526E-04  7.17094747290907E-02
 cg2d: Sum(rhs),rhsMax =  -3.46777859435272E-04  7.17429799506199E-02
 cg2d: Sum(rhs),rhsMax =  -3.46976611351548E-04  7.17764327874009E-02
 cg2d: Sum(rhs),rhsMax =  -3.47174563015577E-04  7.18098332096803E-02
 cg2d: Sum(rhs),rhsMax =  -3.47371735692270E-04  7.18431811878756E-02
 cg2d: Sum(rhs),rhsMax =  -3.47568150369976E-04  7.18764766925826E-02
 cg2d: Sum(rhs),rhsMax =  -3.47763827969614E-04  7.19097196945720E-02
 cg2d: Sum(rhs),rhsMax =  -3.47958789404863E-04  7.19429101647901E-02
 cg2d: Sum(rhs),rhsMax =  -3.48153055317657E-04  7.19760480743584E-02
 cg2d: Sum(rhs),rhsMax =  -3.48346647109705E-04  7.20091333945748E-02
 cg2d: Sum(rhs),rhsMax =  -3.48539584877832E-04  7.20421660969113E-02
 cg2d: Sum(rhs),rhsMax =  -3.48731889620785E-04  7.20751461530208E-02
 cg2d: Sum(rhs),rhsMax =  -3.48923582168321E-04  7.21080735347269E-02
 cg2d: Sum(rhs),rhsMax =  -3.49114683012002E-04  7.21409482140321E-02
 cg2d: Sum(rhs),rhsMax =  -3.49305212647033E-04  7.21737701631161E-02
 cg2d: Sum(rhs),rhsMax =  -3.49495191665716E-04  7.22065393543330E-02
 cg2d: Sum(rhs),rhsMax =  -3.49684640430344E-04  7.22392557602164E-02
 cg2d: Sum(rhs),rhsMax =  -3.49873579413126E-04  7.22719193534735E-02
 cg2d: Sum(rhs),rhsMax =  -3.50062028809085E-04  7.23045301069912E-02
 cg2d: Sum(rhs),rhsMax =  -3.50250009354017E-04  7.23370879938317E-02
 cg2d: Sum(rhs),rhsMax =  -3.50437541293977E-04  7.23695929872358E-02
 cg2d: Sum(rhs),rhsMax =  -3.50624644300013E-04  7.24020450606196E-02
 cg2d: Sum(rhs),rhsMax =  -3.50811339025224E-04  7.24344441875779E-02
 cg2d: Sum(rhs),rhsMax =  -3.50997645093689E-04  7.24667903418842E-02
 cg2d: Sum(rhs),rhsMax =  -3.51183582933824E-04  7.24990834974870E-02
 cg2d: Sum(rhs),rhsMax =  -3.51369172882161E-04  7.25313236285147E-02
 cg2d: Sum(rhs),rhsMax =  -3.51554434223834E-04  7.25635107092709E-02
 cg2d: Sum(rhs),rhsMax =  -3.51739387174026E-04  7.25956447142413E-02
 cg2d: Sum(rhs),rhsMax =  -3.51924051719060E-04  7.26277256180854E-02
 cg2d: Sum(rhs),rhsMax =  -3.52108447606067E-04  7.26597533956426E-02
 cg2d: Sum(rhs),rhsMax =  -3.52292594665921E-04  7.26917280219324E-02
 cg2d: Sum(rhs),rhsMax =  -3.52476512245896E-04  7.27236494721495E-02
 cg2d: Sum(rhs),rhsMax =  -3.52660220568506E-04  7.27555177216682E-02
 cg2d: Sum(rhs),rhsMax =  -3.52843739116523E-04  7.27873327460428E-02
 cg2d: Sum(rhs),rhsMax =  -3.53027087285976E-04  7.28190945210053E-02
 cg2d: Sum(rhs),rhsMax =  -3.53210284602296E-04  7.28508030224645E-02
 cg2d: Sum(rhs),rhsMax =  -3.53393350808522E-04  7.28824582265126E-02
 cg2d: Sum(rhs),rhsMax =  -3.53576304821274E-04  7.29140601094164E-02
 cg2d: Sum(rhs),rhsMax =  -3.53759166536231E-04  7.29456086476247E-02
 cg2d: Sum(rhs),rhsMax =  -3.53941955336591E-04  7.29771038177632E-02
 cg2d: Sum(rhs),rhsMax =  -3.54124690172319E-04  7.30085455966389E-02
 cg2d: Sum(rhs),rhsMax =  -3.54307390528285E-04  7.30399339612364E-02
(PID.TID 0000.0001)      cg2d_init_res =   4.91153633200608E-03
(PID.TID 0000.0001)      cg2d_iters(min,last) =      -1      77
(PID.TID 0000.0001)      cg2d_last_res =   9.24967598614617E-08
(PID.TID 0000.0001) // =======================================================
(PID.TID 0000.0001) // Begin MONITOR dynamic field statistics
(PID.TID 0000.0001) // =======================================================
(PID.TID 0000.0001) %MON time_tsnumber                =                  1512
(PID.TID 0000.0001) %MON time_secondsf                =   1.8144000000000E+06
(PID.TID 0000.0001) %MON dynstat_eta_max              =   5.1208339114592E-02
(PID.TID 0000.0001) %MON dynstat_eta_min              =  -2.8163787083083E-02
(PID.TID 0000.0001) %MON dynstat_eta_mean             =   1.2944883419738E-07
(PID.TID 0000.0001) %MON dynstat_eta_sd               =   2.2988468319784E-02
(PID.TID 0000.0001) %MON dynstat_eta_del2             =   6.5629902798755E-06
(PID.TID 0000.0001) %MON dynstat_uvel_max             =   3.2297916950155E-02
(PID.TID 0000.0001) %MON dynstat_uvel_min             =  -1.0951708960180E-02
(PID.TID 0000.0001) %MON dynstat_uvel_mean            =  -1.3578603541010E-07
(PID.TID 0000.0001) %MON dynstat_uvel_sd              =   9.9202598234292E-03
(PID.TID 0000.0001) %MON dynstat_uvel_del2            =   1.3991967361427E-05
(PID.TID 0000.0001) %MON dynstat_vvel_max             =   4.3698120088874E-02
(PID.TID 0000.0001) %MON dynstat_vvel_min             =  -1.3772517297453E-02
(PID.TID 0000.0001) %MON dynstat_vvel_mean            =   5.1490670218846E-07
(PID.TID 0000.0001) %MON dynstat_vvel_sd              =   1.0171727024141E-02
(PID.TID 0000.0001) %MON dynstat_vvel_del2            =   2.5910268778067E-05
(PID.TID 0000.0001) %MON dynstat_wvel_max             =   3.1892538398388E-08
(PID.TID 0000.0001) %MON dynstat_wvel_min             =  -1.4153659347940E-08
(PID.TID 0000.0001) %MON dynstat_wvel_mean            =  -2.2433616524924E-21
(PID.TID 0000.0001) %MON dynstat_wvel_sd              =   1.2177165134749E-08
(PID.TID 0000.0001) %MON dynstat_wvel_del2            =   5.0003852748287E-12
(PID.TID 0000.0001) %MON dynstat_theta_max            =   2.0000000000000E+01
(PID.TID 0000.0001) %MON dynstat_theta_min            =   2.0000000000000E+01
(PID.TID 0000.0001) %MON dynstat_theta_mean           =   2.0000000000000E+01
(PID.TID 0000.0001) %MON dynstat_theta_sd             =   3.8014036363165E-13
(PID.TID 0000.0001) %MON dynstat_theta_del2           =   0.0000000000000E+00
(PID.TID 0000.0001) %MON dynstat_salt_max             =   3.0000000000000E+01
(PID.TID 0000.0001) %MON dynstat_salt_min             =   3.0000000000000E+01
(PID.TID 0000.0001) %MON dynstat_salt_mean            =   2.9999999999999E+01
(PID.TID 0000.0001) %MON dynstat_salt_sd              =   5.5777604757167E-13
(PID.TID 0000.0001) %MON dynstat_salt_del2            =   0.0000000000000E+00
(PID.TID 0000.0001) %MON trAdv_CFL_u_max              =   1.9352016499674E-03
(PID.TID 0000.0001) %MON trAdv_CFL_v_max              =   2.6204999714311E-03
(PID.TID 0000.0001) %MON trAdv_CFL_w_max              =   8.1647460282227E-09
(PID.TID 0000.0001) %MON advcfl_uvel_max              =   1.9378750170093E-03
(PID.TID 0000.0001) %MON advcfl_vvel_max              =   2.6218872053325E-03
(PID.TID 0000.0001) %MON advcfl_wvel_max              =   1.5308418431226E-08
(PID.TID 0000.0001) %MON advcfl_W_hf_max              =   0.0000000000000E+00
(PID.TID 0000.0001) %MON pe_b_mean                    =   5.4180544523675E-07
(PID.TID 0000.0001) %MON ke_max                       =   9.5356857481142E-04
(PID.TID 0000.0001) %MON ke_mean                      =   9.9081686630963E-05
(PID.TID 0000.0001) %MON ke_vol                       =   6.8893493896486E+15
(PID.TID 0000.0001) %MON vort_r_min                   =  -3.0689831025117E-07
(PID.TID 0000.0001) %MON vort_r_max                   =   1.2519808451753E-06
(PID.TID 0000.0001) %MON vort_a_mean                  =   1.0600000000000E-04
(PID.TID 0000.0001) %MON vort_a_sd                    =   3.5219794111740E-06
(PID.TID 0000.0001) %MON vort_p_mean                  =   1.1652272308690E-04
(PID.TID 0000.0001) %MON vort_p_sd                    =   4.1681976757567E-05
(PID.TID 0000.0001) %MON surfExpan_theta_mean         =  -4.4824183870813E-20
(PID.TID 0000.0001) %MON surfExpan_salt_mean          =  -6.7167437044367E-20
(PID.TID 0000.0001) // =======================================================
(PID.TID 0000.0001) // End MONITOR dynamic field statistics
(PID.TID 0000.0001) // =======================================================
 cg2d: Sum(rhs),rhsMax =  -3.54490075300879E-04  7.30712688887233E-02
 cg2d: Sum(rhs),rhsMax =  -3.54672764104811E-04  7.31025503564423E-02
 cg2d: Sum(rhs),rhsMax =  -3.54855475823583E-04  7.31337783419163E-02
 cg2d: Sum(rhs),rhsMax =  -3.55038229426098E-04  7.31649528228527E-02
 cg2d: Sum(rhs),rhsMax =  -3.55221044108154E-04  7.31960737771340E-02
 cg2d: Sum(rhs),rhsMax =  -3.55403938448420E-04  7.32271411828238E-02
 cg2d: Sum(rhs),rhsMax =  -3.55586931847937E-04  7.32581550181664E-02
 cg2d: Sum(rhs),rhsMax =  -3.55770042997292E-04  7.32891152615867E-02
 cg2d: Sum(rhs),rhsMax =  -3.55953290663624E-04  7.33200218916893E-02
 cg2d: Sum(rhs),rhsMax =  -3.56136693679308E-04  7.33508748872586E-02
 cg2d: Sum(rhs),rhsMax =  -3.56320271128578E-04  7.33816742272599E-02
 cg2d: Sum(rhs),rhsMax =  -3.56504041100533E-04  7.34124198908386E-02
 cg2d: Sum(rhs),rhsMax =  -3.56688022641344E-04  7.34431118573220E-02
 cg2d: Sum(rhs),rhsMax =  -3.56872233981106E-04  7.34737501062170E-02
 cg2d: Sum(rhs),rhsMax =  -3.57056694060342E-04  7.35043346172111E-02
 cg2d: Sum(rhs),rhsMax =  -3.57241421372188E-04  7.35348653701735E-02
 cg2d: Sum(rhs),rhsMax =  -3.57426434086684E-04  7.35653423451533E-02
 cg2d: Sum(rhs),rhsMax =  -3.57611750929177E-04  7.35957655223820E-02
 cg2d: Sum(rhs),rhsMax =  -3.57797390011714E-04  7.36261348822717E-02
 cg2d: Sum(rhs),rhsMax =  -3.57983369776473E-04  7.36564504054147E-02
 cg2d: Sum(rhs),rhsMax =  -3.58169708577057E-04  7.36867120725863E-02
 cg2d: Sum(rhs),rhsMax =  -3.58356424359958E-04  7.37169198647429E-02
 cg2d: Sum(rhs),rhsMax =  -3.58543535766996E-04  7.37470737630201E-02
 cg2d: Sum(rhs),rhsMax =  -3.58731060502118E-04  7.37771737487372E-02
 cg2d: Sum(rhs),rhsMax =  -3.58919017084309E-04  7.38072198033952E-02
 cg2d: Sum(rhs),rhsMax =  -3.59107423441550E-04  7.38372119086763E-02
 cg2d: Sum(rhs),rhsMax =  -3.59296297467861E-04  7.38671500464444E-02
 cg2d: Sum(rhs),rhsMax =  -3.59485657192456E-04  7.38970341987441E-02
 cg2d: Sum(rhs),rhsMax =  -3.59675520500903E-04  7.39268643478042E-02
 cg2d: Sum(rhs),rhsMax =  -3.59865905332806E-04  7.39566404760345E-02
 cg2d: Sum(rhs),rhsMax =  -3.60056829429200E-04  7.39863625660269E-02
 cg2d: Sum(rhs),rhsMax =  -3.60248310931118E-04  7.40160306005546E-02
 cg2d: Sum(rhs),rhsMax =  -3.60440367479765E-04  7.40456445625737E-02
 cg2d: Sum(rhs),rhsMax =  -3.60633016561241E-04  7.40752044352237E-02
 cg2d: Sum(rhs),rhsMax =  -3.60826276020992E-04  7.41047102018244E-02
 cg2d: Sum(rhs),rhsMax =  -3.61020163104620E-04  7.41341618458799E-02
 cg2d: Sum(rhs),rhsMax =  -3.61214695928418E-04  7.41635593510746E-02
 cg2d: Sum(rhs),rhsMax =  -3.61409891745650E-04  7.41929027012786E-02
 cg2d: Sum(rhs),rhsMax =  -3.61605768137943E-04  7.42221918805421E-02
 cg2d: Sum(rhs),rhsMax =  -3.61802342379512E-04  7.42514268730988E-02
 cg2d: Sum(rhs),rhsMax =  -3.61999632260225E-04  7.42806076633654E-02
 cg2d: Sum(rhs),rhsMax =  -3.62197654778549E-04  7.43097342359407E-02
 cg2d: Sum(rhs),rhsMax =  -3.62396427442180E-04  7.43388065756078E-02
 cg2d: Sum(rhs),rhsMax =  -3.62595967336458E-04  7.43678246673314E-02
 cg2d: Sum(rhs),rhsMax =  -3.62796291869541E-04  7.43967884962599E-02
 cg2d: Sum(rhs),rhsMax =  -3.62997418346240E-04  7.44256980477253E-02
 cg2d: Sum(rhs),rhsMax =  -3.63199363721749E-04  7.44545533072415E-02
 cg2d: Sum(rhs),rhsMax =  -3.63402145064657E-04  7.44833542605064E-02
 cg2d: Sum(rhs),rhsMax =  -3.63605779730530E-04  7.45121008934007E-02
 cg2d: Sum(rhs),rhsMax =  -3.63810284632317E-04  7.45407931919898E-02
 cg2d: Sum(rhs),rhsMax =  -3.64015676715235E-04  7.45694311425210E-02
 cg2d: Sum(rhs),rhsMax =  -3.64221972541743E-04  7.45980147314253E-02
 cg2d: Sum(rhs),rhsMax =  -3.64429189682217E-04  7.46265439453184E-02
 cg2d: Sum(rhs),rhsMax =  -3.64637344670453E-04  7.46550187709986E-02
 cg2d: Sum(rhs),rhsMax =  -3.64846454272764E-04  7.46834391954481E-02
 cg2d: Sum(rhs),rhsMax =  -3.65056535477318E-04  7.47118052058307E-02
 cg2d: Sum(rhs),rhsMax =  -3.65267604800091E-04  7.47401167894988E-02
 cg2d: Sum(rhs),rhsMax =  -3.65479679209323E-04  7.47683739339845E-02
 cg2d: Sum(rhs),rhsMax =  -3.65692774892512E-04  7.47965766270044E-02
 cg2d: Sum(rhs),rhsMax =  -3.65906908806505E-04  7.48247248564607E-02
 cg2d: Sum(rhs),rhsMax =  -3.66122097618406E-04  7.48528186104373E-02
 cg2d: Sum(rhs),rhsMax =  -3.66338357455354E-04  7.48808578772039E-02
 cg2d: Sum(rhs),rhsMax =  -3.66555705150668E-04  7.49088426452141E-02
 cg2d: Sum(rhs),rhsMax =  -3.66774157164643E-04  7.49367729031039E-02
 cg2d: Sum(rhs),rhsMax =  -3.66993729771965E-04  7.49646486396965E-02
 cg2d: Sum(rhs),rhsMax =  -3.67214439249915E-04  7.49924698439961E-02
 cg2d: Sum(rhs),rhsMax =  -3.67436302289446E-04  7.50202365051926E-02
 cg2d: Sum(rhs),rhsMax =  -3.67659334700031E-04  7.50479486126605E-02
 cg2d: Sum(rhs),rhsMax =  -3.67883553179814E-04  7.50756061559583E-02
 cg2d: Sum(rhs),rhsMax =  -3.68108973424468E-04  7.51032091248294E-02
 cg2d: Sum(rhs),rhsMax =  -3.68335611857080E-04  7.51307575091999E-02
 cg2d: Sum(rhs),rhsMax =  -3.68563484572093E-04  7.51582512991826E-02
(PID.TID 0000.0001)      cg2d_init_res =   4.68846634522516E-03
(PID.TID 0000.0001)      cg2d_iters(min,last) =      -1      77
(PID.TID 0000.0001)      cg2d_last_res =   8.93480692764966E-08
(PID.TID 0000.0001) // =======================================================
(PID.TID 0000.0001) // Begin MONITOR dynamic field statistics
(PID.TID 0000.0001) // =======================================================
(PID.TID 0000.0001) %MON time_tsnumber                =                  1584
(PID.TID 0000.0001) %MON time_secondsf                =   1.9008000000000E+06
(PID.TID 0000.0001) %MON dynstat_eta_max              =   5.3251409346173E-02
(PID.TID 0000.0001) %MON dynstat_eta_min              =  -2.8854392113985E-02
(PID.TID 0000.0001) %MON dynstat_eta_mean             =   1.3856859508580E-07
(PID.TID 0000.0001) %MON dynstat_eta_sd               =   2.3781898620796E-02
(PID.TID 0000.0001) %MON dynstat_eta_del2             =   6.9310581582441E-06
(PID.TID 0000.0001) %MON dynstat_uvel_max             =   3.4282545759011E-02
(PID.TID 0000.0001) %MON dynstat_uvel_min             =  -1.1354396479147E-02
(PID.TID 0000.0001) %MON dynstat_uvel_mean            =  -9.9382123680240E-08
(PID.TID 0000.0001) %MON dynstat_uvel_sd              =   1.0349691689467E-02
(PID.TID 0000.0001) %MON dynstat_uvel_del2            =   1.4787415885311E-05
(PID.TID 0000.0001) %MON dynstat_vvel_max             =   4.5334386874939E-02
(PID.TID 0000.0001) %MON dynstat_vvel_min             =  -1.4535420805960E-02
(PID.TID 0000.0001) %MON dynstat_vvel_mean            =   5.0234004833968E-07
(PID.TID 0000.0001) %MON dynstat_vvel_sd              =   1.0466286695478E-02
(PID.TID 0000.0001) %MON dynstat_vvel_del2            =   2.6936425023298E-05
(PID.TID 0000.0001) %MON dynstat_wvel_max             =   3.1296675764606E-08
(PID.TID 0000.0001) %MON dynstat_wvel_min             =  -1.4599902321643E-08
(PID.TID 0000.0001) %MON dynstat_wvel_mean            =  -2.7089451274757E-22
(PID.TID 0000.0001) %MON dynstat_wvel_sd              =   1.1961849686926E-08
(PID.TID 0000.0001) %MON dynstat_wvel_del2            =   5.0231694960177E-12
(PID.TID 0000.0001) %MON dynstat_theta_max            =   2.0000000000000E+01
(PID.TID 0000.0001) %MON dynstat_theta_min            =   2.0000000000000E+01
(PID.TID 0000.0001) %MON dynstat_theta_mean           =   2.0000000000000E+01
(PID.TID 0000.0001) %MON dynstat_theta_sd             =   3.8014036363165E-13
(PID.TID 0000.0001) %MON dynstat_theta_del2           =   0.0000000000000E+00
(PID.TID 0000.0001) %MON dynstat_salt_max             =   3.0000000000000E+01
(PID.TID 0000.0001) %MON dynstat_salt_min             =   3.0000000000000E+01
(PID.TID 0000.0001) %MON dynstat_salt_mean            =   2.9999999999999E+01
(PID.TID 0000.0001) %MON dynstat_salt_sd              =   5.5777604757167E-13
(PID.TID 0000.0001) %MON dynstat_salt_del2            =   0.0000000000000E+00
(PID.TID 0000.0001) %MON trAdv_CFL_u_max              =   2.0542183516763E-03
(PID.TID 0000.0001) %MON trAdv_CFL_v_max              =   2.7187283138208E-03
(PID.TID 0000.0001) %MON trAdv_CFL_w_max              =   8.0254419073177E-09
(PID.TID 0000.0001) %MON advcfl_uvel_max              =   2.0569527455407E-03
(PID.TID 0000.0001) %MON advcfl_vvel_max              =   2.7200632124963E-03
(PID.TID 0000.0001) %MON advcfl_wvel_max              =   1.5022404367011E-08
(PID.TID 0000.0001) %MON advcfl_W_hf_max              =   0.0000000000000E+00
(PID.TID 0000.0001) %MON pe_b_mean                    =   5.7985090641124E-07
(PID.TID 0000.0001) %MON ke_max                       =   1.0260885563546E-03
(PID.TID 0000.0001) %MON ke_mean                      =   1.0633760564465E-04
(PID.TID 0000.0001) %MON ke_vol                       =   6.8893493896486E+15
(PID.TID 0000.0001) %MON vort_r_min                   =  -3.2321948592906E-07
(PID.TID 0000.0001) %MON vort_r_max                   =   1.2776671440438E-06
(PID.TID 0000.0001) %MON vort_a_mean                  =   1.0600000000000E-04
(PID.TID 0000.0001) %MON vort_a_sd                    =   3.5223011684528E-06
(PID.TID 0000.0001) %MON vort_p_mean                  =   1.1652272308690E-04
(PID.TID 0000.0001) %MON vort_p_sd                    =   4.1685834998140E-05
(PID.TID 0000.0001) %MON surfExpan_theta_mean         =  -5.4885380191334E-21
(PID.TID 0000.0001) %MON surfExpan_salt_mean          =  -8.2277592146814E-21
(PID.TID 0000.0001) // =======================================================
(PID.TID 0000.0001) // End MONITOR dynamic field statistics
(PID.TID 0000.0001) // =======================================================
 cg2d: Sum(rhs),rhsMax =  -3.68792607883233E-04  7.51856904850731E-02
 cg2d: Sum(rhs),rhsMax =  -3.69022997757346E-04  7.52130750573532E-02
 cg2d: Sum(rhs),rhsMax =  -3.69254669979408E-04  7.52404050066879E-02
 cg2d: Sum(rhs),rhsMax =  -3.69487640545951E-04  7.52676803239269E-02
 cg2d: Sum(rhs),rhsMax =  -3.69721925549654E-04  7.52949010001051E-02
 cg2d: Sum(rhs),rhsMax =  -3.69957540765058E-04  7.53220670264426E-02
 cg2d: Sum(rhs),rhsMax =  -3.70194502261015E-04  7.53491783943437E-02
 cg2d: Sum(rhs),rhsMax =  -3.70423904354503E-04  7.53780504430206E-02
 cg2d: Sum(rhs),rhsMax =  -3.70652805695149E-04  7.54072490296076E-02
 cg2d: Sum(rhs),rhsMax =  -3.70883084471953E-04  7.54363949463736E-02
 cg2d: Sum(rhs),rhsMax =  -3.71114756963678E-04  7.54654881784900E-02
 cg2d: Sum(rhs),rhsMax =  -3.71347838050744E-04  7.54945287113022E-02
 cg2d: Sum(rhs),rhsMax =  -3.71582343589236E-04  7.55235165303285E-02
 cg2d: Sum(rhs),rhsMax =  -3.71818288940291E-04  7.55524516212576E-02
 cg2d: Sum(rhs),rhsMax =  -3.72055689672239E-04  7.55813339699503E-02
 cg2d: Sum(rhs),rhsMax =  -3.72294560717655E-04  7.56101635624425E-02
 cg2d: Sum(rhs),rhsMax =  -3.72534917568432E-04  7.56389403849403E-02
 cg2d: Sum(rhs),rhsMax =  -3.72776775786121E-04  7.56676644238224E-02
 cg2d: Sum(rhs),rhsMax =  -3.73020150414367E-04  7.56963356656399E-02
 cg2d: Sum(rhs),rhsMax =  -3.73265056706162E-04  7.57249540971162E-02
 cg2d: Sum(rhs),rhsMax =  -3.73511509823669E-04  7.57535197051492E-02
 cg2d: Sum(rhs),rhsMax =  -3.73771487212182E-04  7.57820324518996E-02
 cg2d: Sum(rhs),rhsMax =  -3.74033094201427E-04  7.58104923855194E-02
 cg2d: Sum(rhs),rhsMax =  -3.74296332746174E-04  7.58388994470530E-02
 cg2d: Sum(rhs),rhsMax =  -3.74561215568413E-04  7.58672536328751E-02
 cg2d: Sum(rhs),rhsMax =  -3.74827759401234E-04  7.58955549337142E-02
 cg2d: Sum(rhs),rhsMax =  -3.75095981126883E-04  7.59238033366971E-02
 cg2d: Sum(rhs),rhsMax =  -3.75365897105719E-04  7.59519988292720E-02
 cg2d: Sum(rhs),rhsMax =  -3.75637522526270E-04  7.59801413996345E-02
 cg2d: Sum(rhs),rhsMax =  -3.75910872017625E-04  7.60082310363524E-02
 cg2d: Sum(rhs),rhsMax =  -3.76185960993737E-04  7.60362677281252E-02
 cg2d: Sum(rhs),rhsMax =  -3.76462804785659E-04  7.60642514637474E-02
 cg2d: Sum(rhs),rhsMax =  -3.76741418832597E-04  7.60921822321635E-02
 cg2d: Sum(rhs),rhsMax =  -3.77021818067799E-04  7.61200600224979E-02
 cg2d: Sum(rhs),rhsMax =  -3.77304017523596E-04  7.61478848240652E-02
 cg2d: Sum(rhs),rhsMax =  -3.77588032313244E-04  7.61756566263632E-02
 cg2d: Sum(rhs),rhsMax =  -3.77873877462239E-04  7.62033754190646E-02
 cg2d: Sum(rhs),rhsMax =  -3.78161568123207E-04  7.62310411920104E-02
 cg2d: Sum(rhs),rhsMax =  -3.78451119030270E-04  7.62586539352128E-02
 cg2d: Sum(rhs),rhsMax =  -3.78742545215222E-04  7.62862136388524E-02
 cg2d: Sum(rhs),rhsMax =  -3.79035861578846E-04  7.63137202932839E-02
 cg2d: Sum(rhs),rhsMax =  -3.79331082761388E-04  7.63411738890344E-02
 cg2d: Sum(rhs),rhsMax =  -3.79628223655341E-04  7.63685744168078E-02
 cg2d: Sum(rhs),rhsMax =  -3.79927298972134E-04  7.63959218674810E-02
 cg2d: Sum(rhs),rhsMax =  -3.80228323593180E-04  7.64232162321059E-02
 cg2d: Sum(rhs),rhsMax =  -3.80531311899853E-04  7.64504575019086E-02
 cg2d: Sum(rhs),rhsMax =  -3.80836278694129E-04  7.64776456682874E-02
 cg2d: Sum(rhs),rhsMax =  -3.81143238720818E-04  7.65047807228126E-02
 cg2d: Sum(rhs),rhsMax =  -3.81452206267886E-04  7.65318626572321E-02
 cg2d: Sum(rhs),rhsMax =  -3.81763196019791E-04  7.65588914634635E-02
 cg2d: Sum(rhs),rhsMax =  -3.82076222260514E-04  7.65858671335987E-02
 cg2d: Sum(rhs),rhsMax =  -3.82391299574614E-04  7.66127896599038E-02
 cg2d: Sum(rhs),rhsMax =  -3.82708442251502E-04  7.66396590348194E-02
 cg2d: Sum(rhs),rhsMax =  -3.83027664839029E-04  7.66664752509595E-02
 cg2d: Sum(rhs),rhsMax =  -3.83348981360714E-04  7.66932383011110E-02
 cg2d: Sum(rhs),rhsMax =  -3.83672406211788E-04  7.67199481782357E-02
 cg2d: Sum(rhs),rhsMax =  -3.83997953562011E-04  7.67466048754689E-02
 cg2d: Sum(rhs),rhsMax =  -3.84325637932441E-04  7.67732083861208E-02
 cg2d: Sum(rhs),rhsMax =  -3.84655473123777E-04  7.67997587036731E-02
 cg2d: Sum(rhs),rhsMax =  -3.84987473237060E-04  7.68262558217820E-02
 cg2d: Sum(rhs),rhsMax =  -3.85321652563126E-04  7.68526997342809E-02
 cg2d: Sum(rhs),rhsMax =  -3.85658025171532E-04  7.68790904351723E-02
 cg2d: Sum(rhs),rhsMax =  -3.85996604800282E-04  7.69054279186369E-02
 cg2d: Sum(rhs),rhsMax =  -3.86337405446760E-04  7.69317121790249E-02
 cg2d: Sum(rhs),rhsMax =  -3.86680441130990E-04  7.69579432108651E-02
 cg2d: Sum(rhs),rhsMax =  -3.87025725760447E-04  7.69841210088578E-02
 cg2d: Sum(rhs),rhsMax =  -3.87373273273792E-04  7.70102455678774E-02
 cg2d: Sum(rhs),rhsMax =  -3.87723097315794E-04  7.70363168829721E-02
 cg2d: Sum(rhs),rhsMax =  -3.88075211494886E-04  7.70623349493657E-02
 cg2d: Sum(rhs),rhsMax =  -3.88429630020237E-04  7.70882997624545E-02
 cg2d: Sum(rhs),rhsMax =  -3.88786365947590E-04  7.71142113178108E-02
 cg2d: Sum(rhs),rhsMax =  -3.89145433564782E-04  7.71400696111775E-02
(PID.TID 0000.0001)      cg2d_init_res =   4.48832940566660E-03
(PID.TID 0000.0001)      cg2d_iters(min,last) =      -1      76
(PID.TID 0000.0001)      cg2d_last_res =   9.78678088669652E-08
(PID.TID 0000.0001) // =======================================================
(PID.TID 0000.0001) // Begin MONITOR dynamic field statistics
(PID.TID 0000.0001) // =======================================================
(PID.TID 0000.0001) %MON time_tsnumber                =                  1656
(PID.TID 0000.0001) %MON time_secondsf                =   1.9872000000000E+06
(PID.TID 0000.0001) %MON dynstat_eta_max              =   5.5189265562298E-02
(PID.TID 0000.0001) %MON dynstat_eta_min              =  -2.9534991961697E-02
(PID.TID 0000.0001) %MON dynstat_eta_mean             =   1.5020617677009E-07
(PID.TID 0000.0001) %MON dynstat_eta_sd               =   2.4554152273359E-02
(PID.TID 0000.0001) %MON dynstat_eta_del2             =   7.2953278835032E-06
(PID.TID 0000.0001) %MON dynstat_uvel_max             =   3.6261524498022E-02
(PID.TID 0000.0001) %MON dynstat_uvel_min             =  -1.1766882868527E-02
(PID.TID 0000.0001) %MON dynstat_uvel_mean            =  -6.6520277611200E-08
(PID.TID 0000.0001) %MON dynstat_uvel_sd              =   1.0777121059021E-02
(PID.TID 0000.0001) %MON dynstat_uvel_del2            =   1.5598203983663E-05
(PID.TID 0000.0001) %MON dynstat_vvel_max             =   4.6851816150087E-02
(PID.TID 0000.0001) %MON dynstat_vvel_min             =  -1.5312245814265E-02
(PID.TID 0000.0001) %MON dynstat_vvel_mean            =   4.8502520682665E-07
(PID.TID 0000.0001) %MON dynstat_vvel_sd              =   1.0745339800076E-02
(PID.TID 0000.0001) %MON dynstat_vvel_del2            =   2.7882462158615E-05
(PID.TID 0000.0001) %MON dynstat_wvel_max             =   3.0752493587788E-08
(PID.TID 0000.0001) %MON dynstat_wvel_min             =  -1.5010096654587E-08
(PID.TID 0000.0001) %MON dynstat_wvel_mean            =  -5.6029673740138E-22
(PID.TID 0000.0001) %MON dynstat_wvel_sd              =   1.1745035668338E-08
(PID.TID 0000.0001) %MON dynstat_wvel_del2            =   5.0413180841565E-12
(PID.TID 0000.0001) %MON dynstat_theta_max            =   2.0000000000000E+01
(PID.TID 0000.0001) %MON dynstat_theta_min            =   2.0000000000000E+01
(PID.TID 0000.0001) %MON dynstat_theta_mean           =   2.0000000000000E+01
(PID.TID 0000.0001) %MON dynstat_theta_sd             =   3.8014036363165E-13
(PID.TID 0000.0001) %MON dynstat_theta_del2           =   0.0000000000000E+00
(PID.TID 0000.0001) %MON dynstat_salt_max             =   3.0000000000000E+01
(PID.TID 0000.0001) %MON dynstat_salt_min             =   3.0000000000000E+01
(PID.TID 0000.0001) %MON dynstat_salt_mean            =   2.9999999999999E+01
(PID.TID 0000.0001) %MON dynstat_salt_sd              =   5.5777604757167E-13
(PID.TID 0000.0001) %MON dynstat_salt_del2            =   0.0000000000000E+00
(PID.TID 0000.0001) %MON trAdv_CFL_u_max              =   2.1729022209061E-03
(PID.TID 0000.0001) %MON trAdv_CFL_v_max              =   2.8099138748909E-03
(PID.TID 0000.0001) %MON trAdv_CFL_w_max              =   7.9082499209752E-09
(PID.TID 0000.0001) %MON advcfl_uvel_max              =   2.1756914698813E-03
(PID.TID 0000.0001) %MON advcfl_vvel_max              =   2.8111089690052E-03
(PID.TID 0000.0001) %MON advcfl_wvel_max              =   1.4761196922138E-08
(PID.TID 0000.0001) %MON advcfl_W_hf_max              =   0.0000000000000E+00
(PID.TID 0000.0001) %MON pe_b_mean                    =   6.1812055107744E-07
(PID.TID 0000.0001) %MON ke_max                       =   1.0966395179282E-03
(PID.TID 0000.0001) %MON ke_mean                      =   1.1367485157316E-04
(PID.TID 0000.0001) %MON ke_vol                       =   6.8893493896486E+15
(PID.TID 0000.0001) %MON vort_r_min                   =  -3.3872502957080E-07
(PID.TID 0000.0001) %MON vort_r_max                   =   1.3006714974985E-06
(PID.TID 0000.0001) %MON vort_a_mean                  =   1.0600000000000E-04
(PID.TID 0000.0001) %MON vort_a_sd                    =   3.5226231627802E-06
(PID.TID 0000.0001) %MON vort_p_mean                  =   1.1652272308690E-04
(PID.TID 0000.0001) %MON vort_p_sd                    =   4.1689526797981E-05
(PID.TID 0000.0001) %MON surfExpan_theta_mean         =  -1.1139750850159E-20
(PID.TID 0000.0001) %MON surfExpan_salt_mean          =  -1.6693037076089E-20
(PID.TID 0000.0001) // =======================================================
(PID.TID 0000.0001) // End MONITOR dynamic field statistics
(PID.TID 0000.0001) // =======================================================
 cg2d: Sum(rhs),rhsMax =  -3.89506845923721E-04  7.71658746384752E-02
 cg2d: Sum(rhs),rhsMax =  -3.89870617002588E-04  7.71916263957967E-02
 cg2d: Sum(rhs),rhsMax =  -3.90236760127033E-04  7.72173248794092E-02
 cg2d: Sum(rhs),rhsMax =  -3.90605288711886E-04  7.72429700857557E-02
 cg2d: Sum(rhs),rhsMax =  -3.90976216385331E-04  7.72685620114501E-02
 cg2d: Sum(rhs),rhsMax =  -3.91349556478616E-04  7.72941006532829E-02
 cg2d: Sum(rhs),rhsMax =  -3.91725322438113E-04  7.73195860082184E-02
 cg2d: Sum(rhs),rhsMax =  -3.92103527579991E-04  7.73450180733942E-02
 cg2d: Sum(rhs),rhsMax =  -3.92484185284186E-04  7.73703968461224E-02
 cg2d: Sum(rhs),rhsMax =  -3.92867308422491E-04  7.73957223238912E-02
 cg2d: Sum(rhs),rhsMax =  -3.93252910996629E-04  7.74209945043588E-02
 cg2d: Sum(rhs),rhsMax =  -3.93641005584113E-04  7.74462133853619E-02
 cg2d: Sum(rhs),rhsMax =  -3.94031605180249E-04  7.74713789649092E-02
 cg2d: Sum(rhs),rhsMax =  -3.94424723369837E-04  7.74964912411835E-02
 cg2d: Sum(rhs),rhsMax =  -3.94820372956094E-04  7.75215502125419E-02
 cg2d: Sum(rhs),rhsMax =  -3.95218567216214E-04  7.75465558775174E-02
 cg2d: Sum(rhs),rhsMax =  -3.95619318833078E-04  7.75715082348141E-02
 cg2d: Sum(rhs),rhsMax =  -3.96022640749248E-04  7.75964072833133E-02
 cg2d: Sum(rhs),rhsMax =  -3.96428546229916E-04  7.76212530220686E-02
 cg2d: Sum(rhs),rhsMax =  -3.96837047992621E-04  7.76460454503090E-02
 cg2d: Sum(rhs),rhsMax =  -3.97248158959942E-04  7.76707845674356E-02
 cg2d: Sum(rhs),rhsMax =  -3.97661891428414E-04  7.76954703730266E-02
 cg2d: Sum(rhs),rhsMax =  -3.98078258865613E-04  7.77201028668326E-02
 cg2d: Sum(rhs),rhsMax =  -3.98497273536955E-04  7.77446820487789E-02
 cg2d: Sum(rhs),rhsMax =  -3.98918948472039E-04  7.77692079189636E-02
 cg2d: Sum(rhs),rhsMax =  -3.99343296254878E-04  7.77936804776612E-02
 cg2d: Sum(rhs),rhsMax =  -3.99770328968055E-04  7.78180997253190E-02
 cg2d: Sum(rhs),rhsMax =  -4.00200059786526E-04  7.78424656625588E-02
 cg2d: Sum(rhs),rhsMax =  -4.00632500981012E-04  7.78667782901757E-02
 cg2d: Sum(rhs),rhsMax =  -4.01067665293058E-04  7.78910376091415E-02
 cg2d: Sum(rhs),rhsMax =  -4.01505564949282E-04  7.79152436205985E-02
 cg2d: Sum(rhs),rhsMax =  -4.01946212422719E-04  7.79393963258660E-02
 cg2d: Sum(rhs),rhsMax =  -4.02389620209113E-04  7.79634957264360E-02
 cg2d: Sum(rhs),rhsMax =  -4.02835800678160E-04  7.79875418239750E-02
 cg2d: Sum(rhs),rhsMax =  -4.03284765807942E-04  7.80115346203232E-02
 cg2d: Sum(rhs),rhsMax =  -4.03736528181094E-04  7.80354741174962E-02
 cg2d: Sum(rhs),rhsMax =  -4.04191099964927E-04  7.80593603176809E-02
 cg2d: Sum(rhs),rhsMax =  -4.04648493205501E-04  7.80831932232415E-02
 cg2d: Sum(rhs),rhsMax =  -4.05108720325904E-04  7.81069728367137E-02
 cg2d: Sum(rhs),rhsMax =  -4.05571793314751E-04  7.81306991608097E-02
 cg2d: Sum(rhs),rhsMax =  -4.06037724122593E-04  7.81543721984129E-02
 cg2d: Sum(rhs),rhsMax =  -4.06506525138819E-04  7.81779919525825E-02
 cg2d: Sum(rhs),rhsMax =  -4.06978208066063E-04  7.82015584265502E-02
 cg2d: Sum(rhs),rhsMax =  -4.07452785007874E-04  7.82250716237236E-02
 cg2d: Sum(rhs),rhsMax =  -4.07930267735945E-04  7.82485315476823E-02
 cg2d: Sum(rhs),rhsMax =  -4.08410668431704E-04  7.82719382021828E-02
 cg2d: Sum(rhs),rhsMax =  -4.08893998961581E-04  7.82952915911509E-02
 cg2d: Sum(rhs),rhsMax =  -4.09380270504505E-04  7.83185917186894E-02
 cg2d: Sum(rhs),rhsMax =  -4.09869495519927E-04  7.83418385890757E-02
 cg2d: Sum(rhs),rhsMax =  -4.10361685461526E-04  7.83650322067569E-02
 cg2d: Sum(rhs),rhsMax =  -4.10856852114137E-04  7.83881725763598E-02
 cg2d: Sum(rhs),rhsMax =  -4.11355007360378E-04  7.84112597026783E-02
 cg2d: Sum(rhs),rhsMax =  -4.11856162515999E-04  7.84342935906867E-02
 cg2d: Sum(rhs),rhsMax =  -4.12360329201743E-04  7.84572742455274E-02
 cg2d: Sum(rhs),rhsMax =  -4.12867518886629E-04  7.84802016725202E-02
 cg2d: Sum(rhs),rhsMax =  -4.13377743305483E-04  7.85030758771578E-02
 cg2d: Sum(rhs),rhsMax =  -4.13891014011306E-04  7.85258968651044E-02
 cg2d: Sum(rhs),rhsMax =  -4.14407342031260E-04  7.85486646422001E-02
 cg2d: Sum(rhs),rhsMax =  -4.14926739159709E-04  7.85713792144580E-02
 cg2d: Sum(rhs),rhsMax =  -4.15449216499872E-04  7.85940405880656E-02
 cg2d: Sum(rhs),rhsMax =  -4.15974785731379E-04  7.86166487693817E-02
 cg2d: Sum(rhs),rhsMax =  -4.16503457825103E-04  7.86392037649405E-02
 cg2d: Sum(rhs),rhsMax =  -4.17035244050346E-04  7.86617055814489E-02
 cg2d: Sum(rhs),rhsMax =  -4.17570155819495E-04  7.86841542257868E-02
 cg2d: Sum(rhs),rhsMax =  -4.18108204028527E-04  7.87065497050099E-02
 cg2d: Sum(rhs),rhsMax =  -4.18649400163340E-04  7.87288920263427E-02
 cg2d: Sum(rhs),rhsMax =  -4.19193755066157E-04  7.87511811971880E-02
 cg2d: Sum(rhs),rhsMax =  -4.19741279870791E-04  7.87734172251191E-02
 cg2d: Sum(rhs),rhsMax =  -4.20291985583788E-04  7.87956001178825E-02
 cg2d: Sum(rhs),rhsMax =  -4.20845883256228E-04  7.88177298833998E-02
 cg2d: Sum(rhs),rhsMax =  -4.21402983619645E-04  7.88398065297631E-02
 cg2d: Sum(rhs),rhsMax =  -4.21963297684052E-04  7.88618300652404E-02
(PID.TID 0000.0001)      cg2d_init_res =   4.31540117244280E-03
(PID.TID 0000.0001)      cg2d_iters(min,last) =      -1      76
(PID.TID 0000.0001)      cg2d_last_res =   9.67353483918043E-08
(PID.TID 0000.0001) // =======================================================
(PID.TID 0000.0001) // Begin MONITOR dynamic field statistics
(PID.TID 0000.0001) // =======================================================
(PID.TID 0000.0001) %MON time_tsnumber                =                  1728
(PID.TID 0000.0001) %MON time_secondsf                =   2.0736000000000E+06
(PID.TID 0000.0001) %MON dynstat_eta_max              =   5.7097973297118E-02
(PID.TID 0000.0001) %MON dynstat_eta_min              =  -3.0211481022627E-02
(PID.TID 0000.0001) %MON dynstat_eta_mean             =   1.6656722015070E-07
(PID.TID 0000.0001) %MON dynstat_eta_sd               =   2.5307146038666E-02
(PID.TID 0000.0001) %MON dynstat_eta_del2             =   7.6553092602306E-06
(PID.TID 0000.0001) %MON dynstat_uvel_max             =   3.8227781150596E-02
(PID.TID 0000.0001) %MON dynstat_uvel_min             =  -1.2149012357132E-02
(PID.TID 0000.0001) %MON dynstat_uvel_mean            =  -3.7835192600671E-08
(PID.TID 0000.0001) %MON dynstat_uvel_sd              =   1.1201245304889E-02
(PID.TID 0000.0001) %MON dynstat_uvel_del2            =   1.6420777936266E-05
(PID.TID 0000.0001) %MON dynstat_vvel_max             =   4.8284561770928E-02
(PID.TID 0000.0001) %MON dynstat_vvel_min             =  -1.6122653662208E-02
(PID.TID 0000.0001) %MON dynstat_vvel_mean            =   4.6375944968866E-07
(PID.TID 0000.0001) %MON dynstat_vvel_sd              =   1.1011356684611E-02
(PID.TID 0000.0001) %MON dynstat_vvel_del2            =   2.8747895394213E-05
(PID.TID 0000.0001) %MON dynstat_wvel_max             =   3.0273088804097E-08
(PID.TID 0000.0001) %MON dynstat_wvel_min             =  -1.5373243546346E-08
(PID.TID 0000.0001) %MON dynstat_wvel_mean            =  -4.3337798969232E-21
(PID.TID 0000.0001) %MON dynstat_wvel_sd              =   1.1529961675915E-08
(PID.TID 0000.0001) %MON dynstat_wvel_del2            =   5.0543886064297E-12
(PID.TID 0000.0001) %MON dynstat_theta_max            =   2.0000000000000E+01
(PID.TID 0000.0001) %MON dynstat_theta_min            =   2.0000000000000E+01
(PID.TID 0000.0001) %MON dynstat_theta_mean           =   2.0000000000000E+01
(PID.TID 0000.0001) %MON dynstat_theta_sd             =   3.8014036363165E-13
(PID.TID 0000.0001) %MON dynstat_theta_del2           =   0.0000000000000E+00
(PID.TID 0000.0001) %MON dynstat_salt_max             =   3.0000000000000E+01
(PID.TID 0000.0001) %MON dynstat_salt_min             =   3.0000000000000E+01
(PID.TID 0000.0001) %MON dynstat_salt_mean            =   2.9999999999999E+01
(PID.TID 0000.0001) %MON dynstat_salt_sd              =   5.5777604757167E-13
(PID.TID 0000.0001) %MON dynstat_salt_del2            =   0.0000000000000E+00
(PID.TID 0000.0001) %MON trAdv_CFL_u_max              =   2.2908289453843E-03
(PID.TID 0000.0001) %MON trAdv_CFL_v_max              =   2.8959259287611E-03
(PID.TID 0000.0001) %MON trAdv_CFL_w_max              =   7.8040342094330E-09
(PID.TID 0000.0001) %MON advcfl_uvel_max              =   2.2936668690357E-03
(PID.TID 0000.0001) %MON advcfl_vvel_max              =   2.8970737062557E-03
(PID.TID 0000.0001) %MON advcfl_wvel_max              =   1.4531082625967E-08
(PID.TID 0000.0001) %MON advcfl_W_hf_max              =   0.0000000000000E+00
(PID.TID 0000.0001) %MON pe_b_mean                    =   6.5661324058214E-07
(PID.TID 0000.0001) %MON ke_max                       =   1.1633177008089E-03
(PID.TID 0000.0001) %MON ke_mean                      =   1.2109053619964E-04
(PID.TID 0000.0001) %MON ke_vol                       =   6.8893493896486E+15
(PID.TID 0000.0001) %MON vort_r_min                   =  -3.5332823597387E-07
(PID.TID 0000.0001) %MON vort_r_max                   =   1.3191201045386E-06
(PID.TID 0000.0001) %MON vort_a_mean                  =   1.0600000000000E-04
(PID.TID 0000.0001) %MON vort_a_sd                    =   3.5229446799928E-06
(PID.TID 0000.0001) %MON vort_p_mean                  =   1.1652272308690E-04
(PID.TID 0000.0001) %MON vort_p_sd                    =   4.1693061474265E-05
(PID.TID 0000.0001) %MON surfExpan_theta_mean         =  -8.6507472790092E-20
(PID.TID 0000.0001) %MON surfExpan_salt_mean          =  -1.2978899930103E-19
(PID.TID 0000.0001) // =======================================================
(PID.TID 0000.0001) // End MONITOR dynamic field statistics
(PID.TID 0000.0001) // =======================================================
 cg2d: Sum(rhs),rhsMax =  -4.22526836342633E-04  7.88838004982715E-02
 cg2d: Sum(rhs),rhsMax =  -4.23093610686320E-04  7.89057178374683E-02
 cg2d: Sum(rhs),rhsMax =  -4.23663631139971E-04  7.89275820916170E-02
 cg2d: Sum(rhs),rhsMax =  -4.24235133513636E-04  7.89497236647087E-02
 cg2d: Sum(rhs),rhsMax =  -4.24798894184862E-04  7.89738581275892E-02
 cg2d: Sum(rhs),rhsMax =  -4.25365897556308E-04  7.89979410786043E-02
 cg2d: Sum(rhs),rhsMax =  -4.25936154621845E-04  7.90219725193886E-02
 cg2d: Sum(rhs),rhsMax =  -4.26509675267851E-04  7.90459524517418E-02
 cg2d: Sum(rhs),rhsMax =  -4.27086469721640E-04  7.90698808776225E-02
 cg2d: Sum(rhs),rhsMax =  -4.27666548339922E-04  7.90937577991534E-02
 cg2d: Sum(rhs),rhsMax =  -4.28249921678111E-04  7.91175832186188E-02
 cg2d: Sum(rhs),rhsMax =  -4.28836599229720E-04  7.91413571384655E-02
 cg2d: Sum(rhs),rhsMax =  -4.29426591548123E-04  7.91650795613006E-02
 cg2d: Sum(rhs),rhsMax =  -4.30019908566469E-04  7.91887504898946E-02
 cg2d: Sum(rhs),rhsMax =  -4.30616560548606E-04  7.92123699271812E-02
 cg2d: Sum(rhs),rhsMax =  -4.31216557288575E-04  7.92359378762540E-02
 cg2d: Sum(rhs),rhsMax =  -4.31819908723464E-04  7.92594543403673E-02
 cg2d: Sum(rhs),rhsMax =  -4.32426624752132E-04  7.92829193229412E-02
 cg2d: Sum(rhs),rhsMax =  -4.33036715613927E-04  7.93063328275562E-02
 cg2d: Sum(rhs),rhsMax =  -4.33650190635290E-04  7.93296948579521E-02
 cg2d: Sum(rhs),rhsMax =  -4.34267059994858E-04  7.93530054180332E-02
 cg2d: Sum(rhs),rhsMax =  -4.34887333601159E-04  7.93762645118666E-02
 cg2d: Sum(rhs),rhsMax =  -4.35511020649468E-04  7.93994721436776E-02
 cg2d: Sum(rhs),rhsMax =  -4.36138131319222E-04  7.94226283178557E-02
 cg2d: Sum(rhs),rhsMax =  -4.36768674842186E-04  7.94457330389519E-02
 cg2d: Sum(rhs),rhsMax =  -4.37402661201017E-04  7.94687863116774E-02
 cg2d: Sum(rhs),rhsMax =  -4.38040099512978E-04  7.94917881409088E-02
 cg2d: Sum(rhs),rhsMax =  -4.38680999836592E-04  7.95147385316792E-02
 cg2d: Sum(rhs),rhsMax =  -4.39325371399429E-04  7.95376374891871E-02
 cg2d: Sum(rhs),rhsMax =  -4.39973223594448E-04  7.95604850187911E-02
 cg2d: Sum(rhs),rhsMax =  -4.40624565840545E-04  7.95832811260124E-02
 cg2d: Sum(rhs),rhsMax =  -4.41279407663839E-04  7.96060258165307E-02
 cg2d: Sum(rhs),rhsMax =  -4.41937758037171E-04  7.96287190961907E-02
 cg2d: Sum(rhs),rhsMax =  -4.42599626583044E-04  7.96513609709993E-02
 cg2d: Sum(rhs),rhsMax =  -4.43265022516764E-04  7.96739514471193E-02
 cg2d: Sum(rhs),rhsMax =  -4.43933954979814E-04  7.96964905308794E-02
 cg2d: Sum(rhs),rhsMax =  -4.44606433084617E-04  7.97189782287686E-02
 cg2d: Sum(rhs),rhsMax =  -4.45282466058943E-04  7.97414145474378E-02
 cg2d: Sum(rhs),rhsMax =  -4.45962063020697E-04  7.97637994936972E-02
 cg2d: Sum(rhs),rhsMax =  -4.46645232757392E-04  7.97861330745204E-02
 cg2d: Sum(rhs),rhsMax =  -4.47331984635688E-04  7.98084152970409E-02
 cg2d: Sum(rhs),rhsMax =  -4.48022327394264E-04  7.98306461685536E-02
 cg2d: Sum(rhs),rhsMax =  -4.48716270026576E-04  7.98528256965149E-02
 cg2d: Sum(rhs),rhsMax =  -4.49413821171803E-04  7.98749538885406E-02
 cg2d: Sum(rhs),rhsMax =  -4.50114989991313E-04  7.98970307524103E-02
 cg2d: Sum(rhs),rhsMax =  -4.50819785144149E-04  7.99190562960634E-02
 cg2d: Sum(rhs),rhsMax =  -4.51528215350338E-04  7.99410305275988E-02
 cg2d: Sum(rhs),rhsMax =  -4.52240289444988E-04  7.99629534552777E-02
 cg2d: Sum(rhs),rhsMax =  -4.52956016109268E-04  7.99848250875228E-02
 cg2d: Sum(rhs),rhsMax =  -4.53675403714049E-04  8.00066454329160E-02
 cg2d: Sum(rhs),rhsMax =  -4.54398461155164E-04  8.00284145002005E-02
 cg2d: Sum(rhs),rhsMax =  -4.55125196851400E-04  8.00501322982807E-02
 cg2d: Sum(rhs),rhsMax =  -4.55855619347002E-04  8.00717988362224E-02
 cg2d: Sum(rhs),rhsMax =  -4.56589737170849E-04  8.00934141232486E-02
 cg2d: Sum(rhs),rhsMax =  -4.57327558605888E-04  8.01149781687470E-02
 cg2d: Sum(rhs),rhsMax =  -4.58069092179433E-04  8.01364909822650E-02
 cg2d: Sum(rhs),rhsMax =  -4.58814346173658E-04  8.01579525735079E-02
 cg2d: Sum(rhs),rhsMax =  -4.59563328902800E-04  8.01793629523430E-02
 cg2d: Sum(rhs),rhsMax =  -4.60316048422536E-04  8.02007221287997E-02
 cg2d: Sum(rhs),rhsMax =  -4.61072513282822E-04  8.02220301130649E-02
 cg2d: Sum(rhs),rhsMax =  -4.61832731513609E-04  8.02432869154883E-02
 cg2d: Sum(rhs),rhsMax =  -4.62596711166666E-04  8.02644925465775E-02
 cg2d: Sum(rhs),rhsMax =  -4.63364460775158E-04  8.02856470170015E-02
 cg2d: Sum(rhs),rhsMax =  -4.64135987722762E-04  8.03067503375903E-02
 cg2d: Sum(rhs),rhsMax =  -4.64911300270408E-04  8.03278025193315E-02
 cg2d: Sum(rhs),rhsMax =  -4.65690406754447E-04  8.03488035733760E-02
 cg2d: Sum(rhs),rhsMax =  -4.66473314738380E-04  8.03697535110313E-02
 cg2d: Sum(rhs),rhsMax =  -4.67260032054533E-04  8.03906523437675E-02
 cg2d: Sum(rhs),rhsMax =  -4.68050566610183E-04  8.04115000832137E-02
 cg2d: Sum(rhs),rhsMax =  -4.68844926203728E-04  8.04322967411585E-02
 cg2d: Sum(rhs),rhsMax =  -4.69643118642872E-04  8.04530423295485E-02
 cg2d: Sum(rhs),rhsMax =  -4.70445151645526E-04  8.04737368604940E-02
(PID.TID 0000.0001)      cg2d_init_res =   4.15840555260413E-03
(PID.TID 0000.0001)      cg2d_iters(min,last) =      -1      76
(PID.TID 0000.0001)      cg2d_last_res =   9.82979664078562E-08
(PID.TID 0000.0001) // =======================================================
(PID.TID 0000.0001) // Begin MONITOR dynamic field statistics
(PID.TID 0000.0001) // =======================================================
(PID.TID 0000.0001) %MON time_tsnumber                =                  1800
(PID.TID 0000.0001) %MON time_secondsf                =   2.1600000000000E+06
(PID.TID 0000.0001) %MON dynstat_eta_max              =   5.8917263911626E-02
(PID.TID 0000.0001) %MON dynstat_eta_min              =  -3.0888906898807E-02
(PID.TID 0000.0001) %MON dynstat_eta_mean             =   1.8956811437745E-07
(PID.TID 0000.0001) %MON dynstat_eta_sd               =   2.6042868596402E-02
(PID.TID 0000.0001) %MON dynstat_eta_del2             =   8.0106332811192E-06
(PID.TID 0000.0001) %MON dynstat_uvel_max             =   4.0174542124361E-02
(PID.TID 0000.0001) %MON dynstat_uvel_min             =  -1.2500201687456E-02
(PID.TID 0000.0001) %MON dynstat_uvel_mean            =  -1.3763487400509E-08
(PID.TID 0000.0001) %MON dynstat_uvel_sd              =   1.1620768093432E-02
(PID.TID 0000.0001) %MON dynstat_uvel_del2            =   1.7251351816744E-05
(PID.TID 0000.0001) %MON dynstat_vvel_max             =   4.9575740361730E-02
(PID.TID 0000.0001) %MON dynstat_vvel_min             =  -1.6947767250138E-02
(PID.TID 0000.0001) %MON dynstat_vvel_mean            =   4.3941403862241E-07
(PID.TID 0000.0001) %MON dynstat_vvel_sd              =   1.1266905205555E-02
(PID.TID 0000.0001) %MON dynstat_vvel_del2            =   2.9533808837977E-05
(PID.TID 0000.0001) %MON dynstat_wvel_max             =   2.9910116729734E-08
(PID.TID 0000.0001) %MON dynstat_wvel_min             =  -1.5734713594866E-08
(PID.TID 0000.0001) %MON dynstat_wvel_mean            =   4.3906399898535E-21
(PID.TID 0000.0001) %MON dynstat_wvel_sd              =   1.1320453382917E-08
(PID.TID 0000.0001) %MON dynstat_wvel_del2            =   5.0630615414123E-12
(PID.TID 0000.0001) %MON dynstat_theta_max            =   2.0000000000000E+01
(PID.TID 0000.0001) %MON dynstat_theta_min            =   2.0000000000000E+01
(PID.TID 0000.0001) %MON dynstat_theta_mean           =   2.0000000000000E+01
(PID.TID 0000.0001) %MON dynstat_theta_sd             =   3.8014036363165E-13
(PID.TID 0000.0001) %MON dynstat_theta_del2           =   0.0000000000000E+00
(PID.TID 0000.0001) %MON dynstat_salt_max             =   3.0000000000000E+01
(PID.TID 0000.0001) %MON dynstat_salt_min             =   3.0000000000000E+01
(PID.TID 0000.0001) %MON dynstat_salt_mean            =   2.9999999999999E+01
(PID.TID 0000.0001) %MON dynstat_salt_sd              =   5.5777604757167E-13
(PID.TID 0000.0001) %MON dynstat_salt_del2            =   0.0000000000000E+00
(PID.TID 0000.0001) %MON trAdv_CFL_u_max              =   2.4075920431845E-03
(PID.TID 0000.0001) %MON trAdv_CFL_v_max              =   2.9735386762877E-03
(PID.TID 0000.0001) %MON trAdv_CFL_w_max              =   7.7110884452367E-09
(PID.TID 0000.0001) %MON advcfl_uvel_max              =   2.4104725274617E-03
(PID.TID 0000.0001) %MON advcfl_vvel_max              =   2.9745444217038E-03
(PID.TID 0000.0001) %MON advcfl_wvel_max              =   1.4356856030272E-08
(PID.TID 0000.0001) %MON advcfl_W_hf_max              =   0.0000000000000E+00
(PID.TID 0000.0001) %MON pe_b_mean                    =   6.9534595531715E-07
(PID.TID 0000.0001) %MON ke_max                       =   1.2282085792414E-03
(PID.TID 0000.0001) %MON ke_mean                      =   1.2858392758826E-04
(PID.TID 0000.0001) %MON ke_vol                       =   6.8893493896486E+15
(PID.TID 0000.0001) %MON vort_r_min                   =  -3.6716311360089E-07
(PID.TID 0000.0001) %MON vort_r_max                   =   1.3357691237035E-06
(PID.TID 0000.0001) %MON vort_a_mean                  =   1.0600000000000E-04
(PID.TID 0000.0001) %MON vort_a_sd                    =   3.5232652820141E-06
(PID.TID 0000.0001) %MON vort_p_mean                  =   1.1652272308690E-04
(PID.TID 0000.0001) %MON vort_p_sd                    =   4.1696447688619E-05
(PID.TID 0000.0001) %MON surfExpan_theta_mean         =   8.7788660291860E-20
(PID.TID 0000.0001) %MON surfExpan_salt_mean          =   1.3170746468758E-19
(PID.TID 0000.0001) // =======================================================
(PID.TID 0000.0001) // End MONITOR dynamic field statistics
(PID.TID 0000.0001) // =======================================================
 cg2d: Sum(rhs),rhsMax =  -4.71251032728978E-04  8.04943803462627E-02
 cg2d: Sum(rhs),rhsMax =  -4.72060769779313E-04  8.05149727992814E-02
 cg2d: Sum(rhs),rhsMax =  -4.72874369982838E-04  8.05355142321372E-02
 cg2d: Sum(rhs),rhsMax =  -4.73691841480592E-04  8.05560046575769E-02
 cg2d: Sum(rhs),rhsMax =  -4.74513191082264E-04  8.05764440885054E-02
 cg2d: Sum(rhs),rhsMax =  -4.75338426951494E-04  8.05968325379891E-02
 cg2d: Sum(rhs),rhsMax =  -4.76167555875914E-04  8.06171700192518E-02
 cg2d: Sum(rhs),rhsMax =  -4.77000585478088E-04  8.06374565456760E-02
 cg2d: Sum(rhs),rhsMax =  -4.77837522980668E-04  8.06576921308068E-02
 cg2d: Sum(rhs),rhsMax =  -4.78678375829603E-04  8.06778767883452E-02
 cg2d: Sum(rhs),rhsMax =  -4.79523150997172E-04  8.06980105321521E-02
 cg2d: Sum(rhs),rhsMax =  -4.80371855883323E-04  8.07180933762470E-02
 cg2d: Sum(rhs),rhsMax =  -4.81224497636771E-04  8.07381253348104E-02
 cg2d: Sum(rhs),rhsMax =  -4.82081083238568E-04  8.07581064221781E-02
 cg2d: Sum(rhs),rhsMax =  -4.82941619967030E-04  8.07780366528473E-02
 cg2d: Sum(rhs),rhsMax =  -4.83806114446546E-04  8.07979160414736E-02
 cg2d: Sum(rhs),rhsMax =  -4.84674573834859E-04  8.08177446028704E-02
 cg2d: Sum(rhs),rhsMax =  -4.85547005233490E-04  8.08375223520104E-02
 cg2d: Sum(rhs),rhsMax =  -4.86423415059618E-04  8.08572493040251E-02
 cg2d: Sum(rhs),rhsMax =  -4.87303810548699E-04  8.08769254742029E-02
 cg2d: Sum(rhs),rhsMax =  -4.88188198340248E-04  8.08965508779924E-02
 cg2d: Sum(rhs),rhsMax =  -4.89076585119118E-04  8.09161255309983E-02
 cg2d: Sum(rhs),rhsMax =  -4.89968977666125E-04  8.09356494489883E-02
 cg2d: Sum(rhs),rhsMax =  -4.90865382551515E-04  8.09551226478812E-02
 cg2d: Sum(rhs),rhsMax =  -4.91765806328384E-04  8.09745451437600E-02
 cg2d: Sum(rhs),rhsMax =  -4.92670255836145E-04  8.09939169528619E-02
 cg2d: Sum(rhs),rhsMax =  -4.93578737191185E-04  8.10132380915844E-02
 cg2d: Sum(rhs),rhsMax =  -4.94491257270437E-04  8.10325085764822E-02
 cg2d: Sum(rhs),rhsMax =  -4.95407822151787E-04  8.10517284242656E-02
 cg2d: Sum(rhs),rhsMax =  -4.96328438362444E-04  8.10708976518077E-02
 cg2d: Sum(rhs),rhsMax =  -4.97218462562975E-04  8.10900163107739E-02
 cg2d: Sum(rhs),rhsMax =  -4.98112374259205E-04  8.11090843308667E-02
 cg2d: Sum(rhs),rhsMax =  -4.99010201912130E-04  8.11281018008179E-02
 cg2d: Sum(rhs),rhsMax =  -4.99911950190071E-04  8.11470687202538E-02
 cg2d: Sum(rhs),rhsMax =  -5.00817622496701E-04  8.11659851044018E-02
 cg2d: Sum(rhs),rhsMax =  -5.01727222979868E-04  8.11848509723540E-02
 cg2d: Sum(rhs),rhsMax =  -5.02640756976692E-04  8.12036663427477E-02
 cg2d: Sum(rhs),rhsMax =  -5.03558229253083E-04  8.12224312337163E-02
 cg2d: Sum(rhs),rhsMax =  -5.04479645570786E-04  8.12411456633852E-02
 cg2d: Sum(rhs),rhsMax =  -5.05405010909343E-04  8.12598096501161E-02
 cg2d: Sum(rhs),rhsMax =  -5.06334330424699E-04  8.12784232125151E-02
 cg2d: Sum(rhs),rhsMax =  -5.07267609242947E-04  8.12969863693758E-02
 cg2d: Sum(rhs),rhsMax =  -5.08204852256937E-04  8.13154991396421E-02
 cg2d: Sum(rhs),rhsMax =  -5.09146064500733E-04  8.13339615423906E-02
 cg2d: Sum(rhs),rhsMax =  -5.10091250582861E-04  8.13523735968449E-02
 cg2d: Sum(rhs),rhsMax =  -5.11040415774367E-04  8.13707353223818E-02
 cg2d: Sum(rhs),rhsMax =  -5.11993564531559E-04  8.13890467385336E-02
 cg2d: Sum(rhs),rhsMax =  -5.12950701985256E-04  8.14073078649935E-02
 cg2d: Sum(rhs),rhsMax =  -5.13911832354629E-04  8.14255187216143E-02
 cg2d: Sum(rhs),rhsMax =  -5.14876960355633E-04  8.14436793284085E-02
 cg2d: Sum(rhs),rhsMax =  -5.15846090535444E-04  8.14617897055390E-02
 cg2d: Sum(rhs),rhsMax =  -5.16819227570089E-04  8.14798498733282E-02
 cg2d: Sum(rhs),rhsMax =  -5.17796375811223E-04  8.14978598522525E-02
 cg2d: Sum(rhs),rhsMax =  -5.18777539762882E-04  8.15158196629433E-02
 cg2d: Sum(rhs),rhsMax =  -5.19762723597699E-04  8.15337293261878E-02
 cg2d: Sum(rhs),rhsMax =  -5.20751931694714E-04  8.15515888629311E-02
 cg2d: Sum(rhs),rhsMax =  -5.21745168475002E-04  8.15693982942712E-02
 cg2d: Sum(rhs),rhsMax =  -5.22742437703436E-04  8.15871576414627E-02
 cg2d: Sum(rhs),rhsMax =  -5.23743744029061E-04  8.16048669259150E-02
 cg2d: Sum(rhs),rhsMax =  -5.24749091120359E-04  8.16225261691948E-02
 cg2d: Sum(rhs),rhsMax =  -5.25758483004117E-04  8.16401353930200E-02
 cg2d: Sum(rhs),rhsMax =  -5.26771923952354E-04  8.16576946192680E-02
 cg2d: Sum(rhs),rhsMax =  -5.27789417674434E-04  8.16752038699682E-02
 cg2d: Sum(rhs),rhsMax =  -5.28810967870226E-04  8.16926631673060E-02
 cg2d: Sum(rhs),rhsMax =  -5.29836578585369E-04  8.17100725336222E-02
 cg2d: Sum(rhs),rhsMax =  -5.30866253466569E-04  8.17274319914098E-02
 cg2d: Sum(rhs),rhsMax =  -5.31899996369066E-04  8.17447415633197E-02
 cg2d: Sum(rhs),rhsMax =  -5.32937810314306E-04  8.17620012721561E-02
 cg2d: Sum(rhs),rhsMax =  -5.33979699203720E-04  8.17792111408754E-02
 cg2d: Sum(rhs),rhsMax =  -5.35025666943603E-04  8.17963711925934E-02
 cg2d: Sum(rhs),rhsMax =  -5.36075716292446E-04  8.18134814505736E-02
 cg2d: Sum(rhs),rhsMax =  -5.37129850806069E-04  8.18305419382402E-02
(PID.TID 0000.0001)      cg2d_init_res =   4.02261725335839E-03
(PID.TID 0000.0001)      cg2d_iters(min,last) =      -1      77
(PID.TID 0000.0001)      cg2d_last_res =   9.64171642568080E-08
(PID.TID 0000.0001) // =======================================================
(PID.TID 0000.0001) // Begin MONITOR dynamic field statistics
(PID.TID 0000.0001) // =======================================================
(PID.TID 0000.0001) %MON time_tsnumber                =                  1872
(PID.TID 0000.0001) %MON time_secondsf                =   2.2464000000000E+06
(PID.TID 0000.0001) %MON dynstat_eta_max              =   6.0647042007528E-02
(PID.TID 0000.0001) %MON dynstat_eta_min              =  -3.1571396413553E-02
(PID.TID 0000.0001) %MON dynstat_eta_mean             =   2.2013402873375E-07
(PID.TID 0000.0001) %MON dynstat_eta_sd               =   2.6763366796509E-02
(PID.TID 0000.0001) %MON dynstat_eta_del2             =   8.3610378117040E-06
(PID.TID 0000.0001) %MON dynstat_uvel_max             =   4.2095406331779E-02
(PID.TID 0000.0001) %MON dynstat_uvel_min             =  -1.2812674115117E-02
(PID.TID 0000.0001) %MON dynstat_uvel_mean            =   5.4584006502071E-09
(PID.TID 0000.0001) %MON dynstat_uvel_sd              =   1.2034480549030E-02
(PID.TID 0000.0001) %MON dynstat_uvel_del2            =   1.8086110517345E-05
(PID.TID 0000.0001) %MON dynstat_vvel_max             =   5.0805605086085E-02
(PID.TID 0000.0001) %MON dynstat_vvel_min             =  -1.7787711914819E-02
(PID.TID 0000.0001) %MON dynstat_vvel_mean            =   4.1290036288615E-07
(PID.TID 0000.0001) %MON dynstat_vvel_sd              =   1.1514540776038E-02
(PID.TID 0000.0001) %MON dynstat_vvel_del2            =   3.0242744595722E-05
(PID.TID 0000.0001) %MON dynstat_wvel_max             =   2.9577335827926E-08
(PID.TID 0000.0001) %MON dynstat_wvel_min             =  -1.6105823791440E-08
(PID.TID 0000.0001) %MON dynstat_wvel_mean            =   3.2084585654957E-21
(PID.TID 0000.0001) %MON dynstat_wvel_sd              =   1.1120640605332E-08
(PID.TID 0000.0001) %MON dynstat_wvel_del2            =   5.0678563226771E-12
(PID.TID 0000.0001) %MON dynstat_theta_max            =   2.0000000000000E+01
(PID.TID 0000.0001) %MON dynstat_theta_min            =   2.0000000000000E+01
(PID.TID 0000.0001) %MON dynstat_theta_mean           =   2.0000000000000E+01
(PID.TID 0000.0001) %MON dynstat_theta_sd             =   3.8014036363165E-13
(PID.TID 0000.0001) %MON dynstat_theta_del2           =   0.0000000000000E+00
(PID.TID 0000.0001) %MON dynstat_salt_max             =   3.0000000000000E+01
(PID.TID 0000.0001) %MON dynstat_salt_min             =   3.0000000000000E+01
(PID.TID 0000.0001) %MON dynstat_salt_mean            =   2.9999999999999E+01
(PID.TID 0000.0001) %MON dynstat_salt_sd              =   5.5777604757167E-13
(PID.TID 0000.0001) %MON dynstat_salt_del2            =   0.0000000000000E+00
(PID.TID 0000.0001) %MON trAdv_CFL_u_max              =   2.5228073132183E-03
(PID.TID 0000.0001) %MON trAdv_CFL_v_max              =   3.0473687613420E-03
(PID.TID 0000.0001) %MON trAdv_CFL_w_max              =   7.6326113946600E-09
(PID.TID 0000.0001) %MON advcfl_uvel_max              =   2.5257243799067E-03
(PID.TID 0000.0001) %MON advcfl_vvel_max              =   3.0483363051651E-03
(PID.TID 0000.0001) %MON advcfl_wvel_max              =   1.4197121197404E-08
(PID.TID 0000.0001) %MON advcfl_W_hf_max              =   0.0000000000000E+00
(PID.TID 0000.0001) %MON pe_b_mean                    =   7.3435285210526E-07
(PID.TID 0000.0001) %MON ke_max                       =   1.2874492775604E-03
(PID.TID 0000.0001) %MON ke_mean                      =   1.3615606178067E-04
(PID.TID 0000.0001) %MON ke_vol                       =   6.8893493896486E+15
(PID.TID 0000.0001) %MON vort_r_min                   =  -3.8004127523147E-07
(PID.TID 0000.0001) %MON vort_r_max                   =   1.3479304723001E-06
(PID.TID 0000.0001) %MON vort_a_mean                  =   1.0600000000000E-04
(PID.TID 0000.0001) %MON vort_a_sd                    =   3.5235847871922E-06
(PID.TID 0000.0001) %MON vort_p_mean                  =   1.1652272308690E-04
(PID.TID 0000.0001) %MON vort_p_sd                    =   4.1699693562532E-05
(PID.TID 0000.0001) %MON surfExpan_theta_mean         =   6.4147156722230E-20
(PID.TID 0000.0001) %MON surfExpan_salt_mean          =   9.6185370779267E-20
(PID.TID 0000.0001) // =======================================================
(PID.TID 0000.0001) // End MONITOR dynamic field statistics
(PID.TID 0000.0001) // =======================================================
 cg2d: Sum(rhs),rhsMax =  -5.38188074074304E-04  8.18475526791653E-02
 cg2d: Sum(rhs),rhsMax =  -5.39250389200746E-04  8.18645136970799E-02
 cg2d: Sum(rhs),rhsMax =  -5.40316799060175E-04  8.18814250158670E-02
 cg2d: Sum(rhs),rhsMax =  -5.41387307299641E-04  8.18982866595621E-02
 cg2d: Sum(rhs),rhsMax =  -5.42461916665550E-04  8.19150986523559E-02
 cg2d: Sum(rhs),rhsMax =  -5.43540630375518E-04  8.19318610185926E-02
 cg2d: Sum(rhs),rhsMax =  -5.44623451156592E-04  8.19485737827691E-02
 cg2d: Sum(rhs),rhsMax =  -5.45710382004846E-04  8.19652369695361E-02
 cg2d: Sum(rhs),rhsMax =  -5.46801425772334E-04  8.19818506036988E-02
 cg2d: Sum(rhs),rhsMax =  -5.47888407206459E-04  8.19996386232177E-02
 cg2d: Sum(rhs),rhsMax =  -5.48970814408887E-04  8.20186714678993E-02
 cg2d: Sum(rhs),rhsMax =  -5.50057275902238E-04  8.20376558011535E-02
 cg2d: Sum(rhs),rhsMax =  -5.51147794221649E-04  8.20565916398996E-02
 cg2d: Sum(rhs),rhsMax =  -5.52242371299028E-04  8.20754790011981E-02
 cg2d: Sum(rhs),rhsMax =  -5.53341009266392E-04  8.20943179022545E-02
 cg2d: Sum(rhs),rhsMax =  -5.54443710328319E-04  8.21131083604198E-02
 cg2d: Sum(rhs),rhsMax =  -5.55550476287813E-04  8.21318503931879E-02
 cg2d: Sum(rhs),rhsMax =  -5.56661308679384E-04  8.21505440181985E-02
 cg2d: Sum(rhs),rhsMax =  -5.57776209789935E-04  8.21691892532334E-02
 cg2d: Sum(rhs),rhsMax =  -5.58895181181993E-04  8.21877861162201E-02
 cg2d: Sum(rhs),rhsMax =  -5.60018224598061E-04  8.22063346252295E-02
 cg2d: Sum(rhs),rhsMax =  -5.61145341477467E-04  8.22248347984777E-02
 cg2d: Sum(rhs),rhsMax =  -5.62276533695748E-04  8.22432866543225E-02
 cg2d: Sum(rhs),rhsMax =  -5.63411802523811E-04  8.22616902112660E-02
 cg2d: Sum(rhs),rhsMax =  -5.64551149230399E-04  8.22800454879559E-02
 cg2d: Sum(rhs),rhsMax =  -5.65694575703806E-04  8.22983525031790E-02
 cg2d: Sum(rhs),rhsMax =  -5.66842082365040E-04  8.23166112758729E-02
 cg2d: Sum(rhs),rhsMax =  -5.67993671106160E-04  8.23348218251099E-02
 cg2d: Sum(rhs),rhsMax =  -5.69093999675589E-04  8.23529841687353E-02
 cg2d: Sum(rhs),rhsMax =  -5.70198172027858E-04  8.23710983126860E-02
 cg2d: Sum(rhs),rhsMax =  -5.71306168947825E-04  8.23891643074150E-02
 cg2d: Sum(rhs),rhsMax =  -5.72418002835192E-04  8.24071821582730E-02
 cg2d: Sum(rhs),rhsMax =  -5.73533672049042E-04  8.24251518815864E-02
 cg2d: Sum(rhs),rhsMax =  -5.74653174883314E-04  8.24430734983455E-02
 cg2d: Sum(rhs),rhsMax =  -5.75776511115535E-04  8.24609470293627E-02
 cg2d: Sum(rhs),rhsMax =  -5.76903680216949E-04  8.24787724948873E-02
 cg2d: Sum(rhs),rhsMax =  -5.78034681857582E-04  8.24965499151141E-02
 cg2d: Sum(rhs),rhsMax =  -5.79169515706093E-04  8.25142793104605E-02
 cg2d: Sum(rhs),rhsMax =  -5.80308181250603E-04  8.25319607015811E-02
 cg2d: Sum(rhs),rhsMax =  -5.81450677375819E-04  8.25495941093064E-02
 cg2d: Sum(rhs),rhsMax =  -5.82597003676799E-04  8.25671795545993E-02
 cg2d: Sum(rhs),rhsMax =  -5.83747159106029E-04  8.25847170585452E-02
 cg2d: Sum(rhs),rhsMax =  -5.84901142851875E-04  8.26022066423628E-02
 cg2d: Sum(rhs),rhsMax =  -5.86058953726574E-04  8.26196483274025E-02
 cg2d: Sum(rhs),rhsMax =  -5.87220590544075E-04  8.26370421351613E-02
 cg2d: Sum(rhs),rhsMax =  -5.88386052588617E-04  8.26543880872791E-02
 cg2d: Sum(rhs),rhsMax =  -5.89555337693299E-04  8.26716862055389E-02
 cg2d: Sum(rhs),rhsMax =  -5.90728445504510E-04  8.26889365118686E-02
 cg2d: Sum(rhs),rhsMax =  -5.91905373942932E-04  8.27061390283355E-02
 cg2d: Sum(rhs),rhsMax =  -5.93086121554860E-04  8.27232937771496E-02
 cg2d: Sum(rhs),rhsMax =  -5.94270686743167E-04  8.27404007806630E-02
 cg2d: Sum(rhs),rhsMax =  -5.95459067818417E-04  8.27574600613665E-02
 cg2d: Sum(rhs),rhsMax =  -5.96651262686338E-04  8.27744716418929E-02
 cg2d: Sum(rhs),rhsMax =  -5.97847269824224E-04  8.27914355450183E-02
 cg2d: Sum(rhs),rhsMax =  -5.99047086998806E-04  8.28083517936574E-02
 cg2d: Sum(rhs),rhsMax =  -6.00250712433643E-04  8.28252204108648E-02
 cg2d: Sum(rhs),rhsMax =  -6.01458143609894E-04  8.28420414198411E-02
 cg2d: Sum(rhs),rhsMax =  -6.02669378294778E-04  8.28588148439201E-02
 cg2d: Sum(rhs),rhsMax =  -6.03884414233386E-04  8.28755407065811E-02
 cg2d: Sum(rhs),rhsMax =  -6.05103248956129E-04  8.28922190314419E-02
 cg2d: Sum(rhs),rhsMax =  -6.06249727753930E-04  8.29088498950822E-02
 cg2d: Sum(rhs),rhsMax =  -6.07399646753104E-04  8.29254332042220E-02
 cg2d: Sum(rhs),rhsMax =  -6.08553035995971E-04  8.29419690574774E-02
 cg2d: Sum(rhs),rhsMax =  -6.09709885865700E-04  8.29584574730217E-02
 cg2d: Sum(rhs),rhsMax =  -6.10870191546563E-04  8.29748984697273E-02
 cg2d: Sum(rhs),rhsMax =  -6.12033947480193E-04  8.29912920725111E-02
 cg2d: Sum(rhs),rhsMax =  -6.13201149907511E-04  8.30076383068337E-02
 cg2d: Sum(rhs),rhsMax =  -6.14371794752430E-04  8.30239371975442E-02
 cg2d: Sum(rhs),rhsMax =  -6.15545877944736E-04  8.30401887693666E-02
 cg2d: Sum(rhs),rhsMax =  -6.16723395224398E-04  8.30563930472250E-02
 cg2d: Sum(rhs),rhsMax =  -6.17904342218856E-04  8.30725500562838E-02
 cg2d: Sum(rhs),rhsMax =  -6.19088714359794E-04  8.30886598218770E-02
(PID.TID 0000.0001)      cg2d_init_res =   3.89804941197148E-03
(PID.TID 0000.0001)      cg2d_iters(min,last) =      -1      79
(PID.TID 0000.0001)      cg2d_last_res =   9.79716991436701E-08
(PID.TID 0000.0001) // =======================================================
(PID.TID 0000.0001) // Begin MONITOR dynamic field statistics
(PID.TID 0000.0001) // =======================================================
(PID.TID 0000.0001) %MON time_tsnumber                =                  1944
(PID.TID 0000.0001) %MON time_secondsf                =   2.3328000000000E+06
(PID.TID 0000.0001) %MON dynstat_eta_max              =   6.2318931384468E-02
(PID.TID 0000.0001) %MON dynstat_eta_min              =  -3.2262116007479E-02
(PID.TID 0000.0001) %MON dynstat_eta_mean             =   2.5760746821674E-07
(PID.TID 0000.0001) %MON dynstat_eta_sd               =   2.7470730095581E-02
(PID.TID 0000.0001) %MON dynstat_eta_del2             =   8.7063512941332E-06
(PID.TID 0000.0001) %MON dynstat_uvel_max             =   4.3984409242069E-02
(PID.TID 0000.0001) %MON dynstat_uvel_min             =  -1.3082040554723E-02
(PID.TID 0000.0001) %MON dynstat_uvel_mean            =   1.9788815268669E-08
(PID.TID 0000.0001) %MON dynstat_uvel_sd              =   1.2441323690603E-02
(PID.TID 0000.0001) %MON dynstat_uvel_del2            =   1.8921362089437E-05
(PID.TID 0000.0001) %MON dynstat_vvel_max             =   5.1882033258493E-02
(PID.TID 0000.0001) %MON dynstat_vvel_min             =  -1.8644920550067E-02
(PID.TID 0000.0001) %MON dynstat_vvel_mean            =   3.8513510481515E-07
(PID.TID 0000.0001) %MON dynstat_vvel_sd              =   1.1756706285744E-02
(PID.TID 0000.0001) %MON dynstat_vvel_del2            =   3.0878564899650E-05
(PID.TID 0000.0001) %MON dynstat_wvel_max             =   2.9231563260546E-08
(PID.TID 0000.0001) %MON dynstat_wvel_min             =  -1.6454906321887E-08
(PID.TID 0000.0001) %MON dynstat_wvel_mean            =  -5.9590497080030E-22
(PID.TID 0000.0001) %MON dynstat_wvel_sd              =   1.0934597972702E-08
(PID.TID 0000.0001) %MON dynstat_wvel_del2            =   5.0670981338879E-12
(PID.TID 0000.0001) %MON dynstat_theta_max            =   2.0000000000000E+01
(PID.TID 0000.0001) %MON dynstat_theta_min            =   2.0000000000000E+01
(PID.TID 0000.0001) %MON dynstat_theta_mean           =   2.0000000000000E+01
(PID.TID 0000.0001) %MON dynstat_theta_sd             =   3.8014036363165E-13
(PID.TID 0000.0001) %MON dynstat_theta_del2           =   0.0000000000000E+00
(PID.TID 0000.0001) %MON dynstat_salt_max             =   3.0000000000000E+01
(PID.TID 0000.0001) %MON dynstat_salt_min             =   3.0000000000000E+01
(PID.TID 0000.0001) %MON dynstat_salt_mean            =   2.9999999999999E+01
(PID.TID 0000.0001) %MON dynstat_salt_sd              =   5.5777604757167E-13
(PID.TID 0000.0001) %MON dynstat_salt_del2            =   0.0000000000000E+00
(PID.TID 0000.0001) %MON trAdv_CFL_u_max              =   2.6361166848794E-03
(PID.TID 0000.0001) %MON trAdv_CFL_v_max              =   3.1120934531785E-03
(PID.TID 0000.0001) %MON trAdv_CFL_w_max              =   7.5605571304240E-09
(PID.TID 0000.0001) %MON advcfl_uvel_max              =   2.6390645545241E-03
(PID.TID 0000.0001) %MON advcfl_vvel_max              =   3.1129219955096E-03
(PID.TID 0000.0001) %MON advcfl_wvel_max              =   1.4031150365062E-08
(PID.TID 0000.0001) %MON advcfl_W_hf_max              =   0.0000000000000E+00
(PID.TID 0000.0001) %MON pe_b_mean                    =   7.7368414560663E-07
(PID.TID 0000.0001) %MON ke_max                       =   1.3451641752892E-03
(PID.TID 0000.0001) %MON ke_mean                      =   1.4380934535470E-04
(PID.TID 0000.0001) %MON ke_vol                       =   6.8893493896486E+15
(PID.TID 0000.0001) %MON vort_r_min                   =  -3.9202296517663E-07
(PID.TID 0000.0001) %MON vort_r_max                   =   1.3588629984060E-06
(PID.TID 0000.0001) %MON vort_a_mean                  =   1.0600000000000E-04
(PID.TID 0000.0001) %MON vort_a_sd                    =   3.5239032414719E-06
(PID.TID 0000.0001) %MON vort_p_mean                  =   1.1652272308690E-04
(PID.TID 0000.0001) %MON vort_p_sd                    =   4.1702806752852E-05
(PID.TID 0000.0001) %MON surfExpan_theta_mean         =  -1.1819641561791E-20
(PID.TID 0000.0001) %MON surfExpan_salt_mean          =  -1.7716830471828E-20
(PID.TID 0000.0001) // =======================================================
(PID.TID 0000.0001) // End MONITOR dynamic field statistics
(PID.TID 0000.0001) // =======================================================
 cg2d: Sum(rhs),rhsMax =  -6.20276507145218E-04  8.31047223694668E-02
 cg2d: Sum(rhs),rhsMax =  -6.21467715311266E-04  8.31207377246377E-02
 cg2d: Sum(rhs),rhsMax =  -6.22662334921406E-04  8.31367059131002E-02
 cg2d: Sum(rhs),rhsMax =  -6.23860360317658E-04  8.31526269606981E-02
 cg2d: Sum(rhs),rhsMax =  -6.25061786824761E-04  8.31685008934177E-02
 cg2d: Sum(rhs),rhsMax =  -6.26266609087833E-04  8.31843277373840E-02
 cg2d: Sum(rhs),rhsMax =  -6.27474821705162E-04  8.32001075188646E-02
 cg2d: Sum(rhs),rhsMax =  -6.28686419327128E-04  8.32158402642671E-02
 cg2d: Sum(rhs),rhsMax =  -6.29901396365064E-04  8.32315260001359E-02
 cg2d: Sum(rhs),rhsMax =  -6.31119747539662E-04  8.32471647531545E-02
 cg2d: Sum(rhs),rhsMax =  -6.32247028890472E-04  8.32627566016909E-02
 cg2d: Sum(rhs),rhsMax =  -6.33377300798401E-04  8.32783014642964E-02
 cg2d: Sum(rhs),rhsMax =  -6.34510539478880E-04  8.32937994284303E-02
 cg2d: Sum(rhs),rhsMax =  -6.35646748922115E-04  8.33092505230598E-02
 cg2d: Sum(rhs),rhsMax =  -6.36785921452648E-04  8.33246547695722E-02
 cg2d: Sum(rhs),rhsMax =  -6.37928048682696E-04  8.33400121953202E-02
 cg2d: Sum(rhs),rhsMax =  -6.39073124215572E-04  8.33553228288429E-02
 cg2d: Sum(rhs),rhsMax =  -6.40221141041713E-04  8.33705866981126E-02
 cg2d: Sum(rhs),rhsMax =  -6.41372091939832E-04  8.33858038309214E-02
 cg2d: Sum(rhs),rhsMax =  -6.42525969970480E-04  8.34009742552406E-02
 cg2d: Sum(rhs),rhsMax =  -6.43682767611342E-04  8.34160979992630E-02
 cg2d: Sum(rhs),rhsMax =  -6.44842477187858E-04  8.34311750913548E-02
 cg2d: Sum(rhs),rhsMax =  -6.46005091105871E-04  8.34462055600105E-02
 cg2d: Sum(rhs),rhsMax =  -6.47170601825023E-04  8.34611894338417E-02
 cg2d: Sum(rhs),rhsMax =  -6.48339001078062E-04  8.34761267415919E-02
 cg2d: Sum(rhs),rhsMax =  -6.49510281103965E-04  8.34910175121321E-02
 cg2d: Sum(rhs),rhsMax =  -6.50684433288473E-04  8.35058617744723E-02
 cg2d: Sum(rhs),rhsMax =  -6.51861449851694E-04  8.35206595577589E-02
 cg2d: Sum(rhs),rhsMax =  -6.53041321649582E-04  8.35354108912761E-02
 cg2d: Sum(rhs),rhsMax =  -6.54224040239355E-04  8.35501158044483E-02
 cg2d: Sum(rhs),rhsMax =  -6.55409596640448E-04  8.35647743268305E-02
 cg2d: Sum(rhs),rhsMax =  -6.56494881079061E-04  8.35793864930928E-02
 cg2d: Sum(rhs),rhsMax =  -6.57582590584037E-04  8.35939523208599E-02
 cg2d: Sum(rhs),rhsMax =  -6.58672746732734E-04  8.36084718476708E-02
 cg2d: Sum(rhs),rhsMax =  -6.59765333190253E-04  8.36229451083396E-02
 cg2d: Sum(rhs),rhsMax =  -6.60860339539632E-04  8.36373721277456E-02
 cg2d: Sum(rhs),rhsMax =  -6.61957755603376E-04  8.36517529356659E-02
 cg2d: Sum(rhs),rhsMax =  -6.63057571671111E-04  8.36660875633850E-02
 cg2d: Sum(rhs),rhsMax =  -6.64159778192053E-04  8.36803760417804E-02
 cg2d: Sum(rhs),rhsMax =  -6.65264365107370E-04  8.36946184015457E-02
 cg2d: Sum(rhs),rhsMax =  -6.66371322287480E-04  8.37088146735241E-02
 cg2d: Sum(rhs),rhsMax =  -6.67480639172220E-04  8.37229648887550E-02
 cg2d: Sum(rhs),rhsMax =  -6.68592305095431E-04  8.37370690784399E-02
 cg2d: Sum(rhs),rhsMax =  -6.69706309840243E-04  8.37511272739073E-02
 cg2d: Sum(rhs),rhsMax =  -6.70822641823259E-04  8.37651395066084E-02
 cg2d: Sum(rhs),rhsMax =  -6.71941290506711E-04  8.37791058081226E-02
 cg2d: Sum(rhs),rhsMax =  -6.73062244082315E-04  8.37930262101582E-02
 cg2d: Sum(rhs),rhsMax =  -6.74185491233180E-04  8.38069007445585E-02
 cg2d: Sum(rhs),rhsMax =  -6.75311020349262E-04  8.38207294433030E-02
 cg2d: Sum(rhs),rhsMax =  -6.76438819328377E-04  8.38345123385057E-02
 cg2d: Sum(rhs),rhsMax =  -6.77568876417078E-04  8.38482494624118E-02
 cg2d: Sum(rhs),rhsMax =  -6.78701178674489E-04  8.38619408474038E-02
 cg2d: Sum(rhs),rhsMax =  -6.79835713925731E-04  8.38755865259944E-02
 cg2d: Sum(rhs),rhsMax =  -6.80972469299806E-04  8.38891865308286E-02
 cg2d: Sum(rhs),rhsMax =  -6.82111431757809E-04  8.39027408946892E-02
 cg2d: Sum(rhs),rhsMax =  -6.83252587993104E-04  8.39162496504865E-02
 cg2d: Sum(rhs),rhsMax =  -6.84395924535241E-04  8.39297128312676E-02
 cg2d: Sum(rhs),rhsMax =  -6.85541427462629E-04  8.39431304702077E-02
 cg2d: Sum(rhs),rhsMax =  -6.86689083297814E-04  8.39565026006165E-02
 cg2d: Sum(rhs),rhsMax =  -6.87838877269750E-04  8.39698292559347E-02
 cg2d: Sum(rhs),rhsMax =  -6.88990795062877E-04  8.39831104697369E-02
 cg2d: Sum(rhs),rhsMax =  -6.90144821964059E-04  8.39963462757271E-02
 cg2d: Sum(rhs),rhsMax =  -6.91300943093529E-04  8.40095367077413E-02
 cg2d: Sum(rhs),rhsMax =  -6.92459142722333E-04  8.40226817997492E-02
 cg2d: Sum(rhs),rhsMax =  -6.93619405565084E-04  8.40357815858513E-02
 cg2d: Sum(rhs),rhsMax =  -6.94781715644618E-04  8.40488361002777E-02
 cg2d: Sum(rhs),rhsMax =  -6.95946057284475E-04  8.40618453773919E-02
 cg2d: Sum(rhs),rhsMax =  -6.97112412941955E-04  8.40748094516880E-02
 cg2d: Sum(rhs),rhsMax =  -6.98280766694530E-04  8.40877283577912E-02
 cg2d: Sum(rhs),rhsMax =  -6.99451101076283E-04  8.41006021304548E-02
 cg2d: Sum(rhs),rhsMax =  -7.00623398981363E-04  8.41134308045672E-02
 cg2d: Sum(rhs),rhsMax =  -7.01797642629343E-04  8.41262144151443E-02
(PID.TID 0000.0001)      cg2d_init_res =   3.78898242140914E-03
(PID.TID 0000.0001)      cg2d_iters(min,last) =      -1      81
(PID.TID 0000.0001)      cg2d_last_res =   9.84142525824371E-08
(PID.TID 0000.0001) // =======================================================
(PID.TID 0000.0001) // Begin MONITOR dynamic field statistics
(PID.TID 0000.0001) // =======================================================
(PID.TID 0000.0001) %MON time_tsnumber                =                  2016
(PID.TID 0000.0001) %MON time_secondsf                =   2.4192000000000E+06
(PID.TID 0000.0001) %MON dynstat_eta_max              =   6.3993778589069E-02
(PID.TID 0000.0001) %MON dynstat_eta_min              =  -3.2963269795286E-02
(PID.TID 0000.0001) %MON dynstat_eta_mean             =   2.9558586681756E-07
(PID.TID 0000.0001) %MON dynstat_eta_sd               =   2.8167071251165E-02
(PID.TID 0000.0001) %MON dynstat_eta_del2             =   9.0464760534621E-06
(PID.TID 0000.0001) %MON dynstat_uvel_max             =   4.5836076781351E-02
(PID.TID 0000.0001) %MON dynstat_uvel_min             =  -1.3323113033209E-02
(PID.TID 0000.0001) %MON dynstat_uvel_mean            =   2.9368889430007E-08
(PID.TID 0000.0001) %MON dynstat_uvel_sd              =   1.2840430663858E-02
(PID.TID 0000.0001) %MON dynstat_uvel_del2            =   1.9753641418738E-05
(PID.TID 0000.0001) %MON dynstat_vvel_max             =   5.2912052351908E-02
(PID.TID 0000.0001) %MON dynstat_vvel_min             =  -1.9545153760277E-02
(PID.TID 0000.0001) %MON dynstat_vvel_mean            =   3.5700898494831E-07
(PID.TID 0000.0001) %MON dynstat_vvel_sd              =   1.1995647578970E-02
(PID.TID 0000.0001) %MON dynstat_vvel_del2            =   3.1446295423296E-05
(PID.TID 0000.0001) %MON dynstat_wvel_max             =   2.8964211981511E-08
(PID.TID 0000.0001) %MON dynstat_wvel_min             =  -1.6746001438878E-08
(PID.TID 0000.0001) %MON dynstat_wvel_mean            =  -1.8976793904181E-21
(PID.TID 0000.0001) %MON dynstat_wvel_sd              =   1.0765948887153E-08
(PID.TID 0000.0001) %MON dynstat_wvel_del2            =   5.0611939293129E-12
(PID.TID 0000.0001) %MON dynstat_theta_max            =   2.0000000000000E+01
(PID.TID 0000.0001) %MON dynstat_theta_min            =   2.0000000000000E+01
(PID.TID 0000.0001) %MON dynstat_theta_mean           =   2.0000000000000E+01
(PID.TID 0000.0001) %MON dynstat_theta_sd             =   3.8014036363165E-13
(PID.TID 0000.0001) %MON dynstat_theta_del2           =   0.0000000000000E+00
(PID.TID 0000.0001) %MON dynstat_salt_max             =   3.0000000000000E+01
(PID.TID 0000.0001) %MON dynstat_salt_min             =   3.0000000000000E+01
(PID.TID 0000.0001) %MON dynstat_salt_mean            =   2.9999999999999E+01
(PID.TID 0000.0001) %MON dynstat_salt_sd              =   5.5777604757167E-13
(PID.TID 0000.0001) %MON dynstat_salt_del2            =   0.0000000000000E+00
(PID.TID 0000.0001) %MON trAdv_CFL_u_max              =   2.7471914588709E-03
(PID.TID 0000.0001) %MON trAdv_CFL_v_max              =   3.1739207112814E-03
(PID.TID 0000.0001) %MON trAdv_CFL_w_max              =   7.4888713175818E-09
(PID.TID 0000.0001) %MON advcfl_uvel_max              =   2.7501646068810E-03
(PID.TID 0000.0001) %MON advcfl_vvel_max              =   3.1747231411145E-03
(PID.TID 0000.0001) %MON advcfl_wvel_max              =   1.3902821751125E-08
(PID.TID 0000.0001) %MON advcfl_W_hf_max              =   0.0000000000000E+00
(PID.TID 0000.0001) %MON pe_b_mean                    =   8.1340470143317E-07
(PID.TID 0000.0001) %MON ke_max                       =   1.3962618890559E-03
(PID.TID 0000.0001) %MON ke_mean                      =   1.5154716339403E-04
(PID.TID 0000.0001) %MON ke_vol                       =   6.8893493896486E+15
(PID.TID 0000.0001) %MON vort_r_min                   =  -4.0410994992019E-07
(PID.TID 0000.0001) %MON vort_r_max                   =   1.3658282351936E-06
(PID.TID 0000.0001) %MON vort_a_mean                  =   1.0600000000000E-04
(PID.TID 0000.0001) %MON vort_a_sd                    =   3.5242208837516E-06
(PID.TID 0000.0001) %MON vort_p_mean                  =   1.1652272308690E-04
(PID.TID 0000.0001) %MON vort_p_sd                    =   4.1705794495937E-05
(PID.TID 0000.0001) %MON surfExpan_theta_mean         =  -3.7783188923236E-20
(PID.TID 0000.0001) %MON surfExpan_salt_mean          =  -5.6669730636511E-20
(PID.TID 0000.0001) // =======================================================
(PID.TID 0000.0001) // End MONITOR dynamic field statistics
(PID.TID 0000.0001) // =======================================================
 cg2d: Sum(rhs),rhsMax =  -7.02973813762726E-04  8.41389529973336E-02
 cg2d: Sum(rhs),rhsMax =  -7.04151894080060E-04  8.41516465864118E-02
 cg2d: Sum(rhs),rhsMax =  -7.05331864818696E-04  8.41642952177872E-02
 cg2d: Sum(rhs),rhsMax =  -7.06513707225839E-04  8.41768989269961E-02
 cg2d: Sum(rhs),rhsMax =  -7.07697401301183E-04  8.41894577497077E-02
 cg2d: Sum(rhs),rhsMax =  -7.08882927727063E-04  8.42019717217177E-02
 cg2d: Sum(rhs),rhsMax =  -7.10070265871061E-04  8.42144408789544E-02
 cg2d: Sum(rhs),rhsMax =  -7.11259395439576E-04  8.42268652574717E-02
 cg2d: Sum(rhs),rhsMax =  -7.12450295634885E-04  8.42392448934581E-02
 cg2d: Sum(rhs),rhsMax =  -7.13533904563989E-04  8.42515798202867E-02
 cg2d: Sum(rhs),rhsMax =  -7.14618974461758E-04  8.42638700748394E-02
 cg2d: Sum(rhs),rhsMax =  -7.15705467066473E-04  8.42761156998115E-02
 cg2d: Sum(rhs),rhsMax =  -7.16793368661244E-04  8.42883167330333E-02
 cg2d: Sum(rhs),rhsMax =  -7.17882657378949E-04  8.43004732066496E-02
 cg2d: Sum(rhs),rhsMax =  -7.18973311199401E-04  8.43125851567687E-02
 cg2d: Sum(rhs),rhsMax =  -7.20065308245747E-04  8.43246526210290E-02
 cg2d: Sum(rhs),rhsMax =  -7.21158625718685E-04  8.43366756369128E-02
 cg2d: Sum(rhs),rhsMax =  -7.22253240791983E-04  8.43486542417761E-02
 cg2d: Sum(rhs),rhsMax =  -7.23349129702091E-04  8.43605884730608E-02
 cg2d: Sum(rhs),rhsMax =  -7.24446268717191E-04  8.43724783683613E-02
 cg2d: Sum(rhs),rhsMax =  -7.25544633365410E-04  8.43843239654050E-02
 cg2d: Sum(rhs),rhsMax =  -7.26644198718422E-04  8.43961253020440E-02
 cg2d: Sum(rhs),rhsMax =  -7.27744939767103E-04  8.44078824162575E-02
 cg2d: Sum(rhs),rhsMax =  -7.28846830347307E-04  8.44195953461524E-02
 cg2d: Sum(rhs),rhsMax =  -7.29949844521616E-04  8.44312641299631E-02
 cg2d: Sum(rhs),rhsMax =  -7.31053955217723E-04  8.44428888060557E-02
 cg2d: Sum(rhs),rhsMax =  -7.32159135063401E-04  8.44544694129160E-02
 cg2d: Sum(rhs),rhsMax =  -7.33265356307650E-04  8.44660059891599E-02
 cg2d: Sum(rhs),rhsMax =  -7.34371699920584E-04  8.44776010206533E-02
 cg2d: Sum(rhs),rhsMax =  -7.35457269260668E-04  8.44916514407984E-02
 cg2d: Sum(rhs),rhsMax =  -7.36543729862735E-04  8.45056582221633E-02
 cg2d: Sum(rhs),rhsMax =  -7.37631051731167E-04  8.45196213949931E-02
 cg2d: Sum(rhs),rhsMax =  -7.38719203886507E-04  8.45335409896507E-02
 cg2d: Sum(rhs),rhsMax =  -7.39808155411310E-04  8.45474170366185E-02
 cg2d: Sum(rhs),rhsMax =  -7.40897874301216E-04  8.45612495665032E-02
 cg2d: Sum(rhs),rhsMax =  -7.41988327972735E-04  8.45750386100275E-02
 cg2d: Sum(rhs),rhsMax =  -7.43079483582421E-04  8.45887841980366E-02
 cg2d: Sum(rhs),rhsMax =  -7.44171306797194E-04  8.46024863614911E-02
 cg2d: Sum(rhs),rhsMax =  -7.45263763679876E-04  8.46161451314795E-02
 cg2d: Sum(rhs),rhsMax =  -7.46356818977428E-04  8.46297605392009E-02
 cg2d: Sum(rhs),rhsMax =  -7.47450436381254E-04  8.46433326159815E-02
 cg2d: Sum(rhs),rhsMax =  -7.48544580220431E-04  8.46568613932622E-02
 cg2d: Sum(rhs),rhsMax =  -7.49639212379707E-04  8.46703469026068E-02
 cg2d: Sum(rhs),rhsMax =  -7.50734295633822E-04  8.46837891756964E-02
 cg2d: Sum(rhs),rhsMax =  -7.51829790876221E-04  8.46971882443293E-02
 cg2d: Sum(rhs),rhsMax =  -7.52925658864485E-04  8.47105441404252E-02
 cg2d: Sum(rhs),rhsMax =  -7.54021859322333E-04  8.47238568960255E-02
 cg2d: Sum(rhs),rhsMax =  -7.55118350879821E-04  8.47371265432827E-02
 cg2d: Sum(rhs),rhsMax =  -7.56215092042212E-04  8.47503531144749E-02
 cg2d: Sum(rhs),rhsMax =  -7.57312040041723E-04  8.47635366419954E-02
 cg2d: Sum(rhs),rhsMax =  -7.58409151334963E-04  8.47766771583555E-02
 cg2d: Sum(rhs),rhsMax =  -7.59506381582571E-04  8.47897746961875E-02
 cg2d: Sum(rhs),rhsMax =  -7.60603685219092E-04  8.48028292882377E-02
 cg2d: Sum(rhs),rhsMax =  -7.61701016570610E-04  8.48158409673745E-02
 cg2d: Sum(rhs),rhsMax =  -7.62798328139823E-04  8.48288097665809E-02
 cg2d: Sum(rhs),rhsMax =  -7.63895571811255E-04  8.48417357189589E-02
 cg2d: Sum(rhs),rhsMax =  -7.64992699036220E-04  8.48546188577301E-02
 cg2d: Sum(rhs),rhsMax =  -7.66089659751362E-04  8.48674592162287E-02
 cg2d: Sum(rhs),rhsMax =  -7.67186402727080E-04  8.48802568279113E-02
 cg2d: Sum(rhs),rhsMax =  -7.68282876221826E-04  8.48930117263475E-02
 cg2d: Sum(rhs),rhsMax =  -7.69379027407268E-04  8.49057239452269E-02
 cg2d: Sum(rhs),rhsMax =  -7.70474801712426E-04  8.49183935183548E-02
 cg2d: Sum(rhs),rhsMax =  -7.71570144809004E-04  8.49310204796547E-02
 cg2d: Sum(rhs),rhsMax =  -7.72664999773402E-04  8.49436048631631E-02
 cg2d: Sum(rhs),rhsMax =  -7.73759309630612E-04  8.49561467030369E-02
 cg2d: Sum(rhs),rhsMax =  -7.74853015507313E-04  8.49686460335493E-02
 cg2d: Sum(rhs),rhsMax =  -7.75946058105374E-04  8.49811028890854E-02
 cg2d: Sum(rhs),rhsMax =  -7.77038376328903E-04  8.49935173041515E-02
 cg2d: Sum(rhs),rhsMax =  -7.78129907911609E-04  8.50058893133697E-02
 cg2d: Sum(rhs),rhsMax =  -7.79220590039778E-04  8.50182189514728E-02
 cg2d: Sum(rhs),rhsMax =  -7.80310357763631E-04  8.50305062533147E-02
 cg2d: Sum(rhs),rhsMax =  -7.81399145351275E-04  8.50427512538620E-02
(PID.TID 0000.0001)      cg2d_init_res =   3.68959732223534E-03
(PID.TID 0000.0001)      cg2d_iters(min,last) =      -1      82
(PID.TID 0000.0001)      cg2d_last_res =   9.51536839668193E-08
(PID.TID 0000.0001) // =======================================================
(PID.TID 0000.0001) // Begin MONITOR dynamic field statistics
(PID.TID 0000.0001) // =======================================================
(PID.TID 0000.0001) %MON time_tsnumber                =                  2088
(PID.TID 0000.0001) %MON time_secondsf                =   2.5056000000000E+06
(PID.TID 0000.0001) %MON dynstat_eta_max              =   6.5620736943183E-02
(PID.TID 0000.0001) %MON dynstat_eta_min              =  -3.3676115068617E-02
(PID.TID 0000.0001) %MON dynstat_eta_mean             =   3.3260141714164E-07
(PID.TID 0000.0001) %MON dynstat_eta_sd               =   2.8854501903764E-02
(PID.TID 0000.0001) %MON dynstat_eta_del2             =   9.3813726309661E-06
(PID.TID 0000.0001) %MON dynstat_uvel_max             =   4.7645468479452E-02
(PID.TID 0000.0001) %MON dynstat_uvel_min             =  -1.3522609577427E-02
(PID.TID 0000.0001) %MON dynstat_uvel_mean            =   3.4502931436042E-08
(PID.TID 0000.0001) %MON dynstat_uvel_sd              =   1.3231149336182E-02
(PID.TID 0000.0001) %MON dynstat_uvel_del2            =   2.0579771927822E-05
(PID.TID 0000.0001) %MON dynstat_vvel_max             =   5.3794525416455E-02
(PID.TID 0000.0001) %MON dynstat_vvel_min             =  -2.0462794897288E-02
(PID.TID 0000.0001) %MON dynstat_vvel_mean            =   3.2935751034082E-07
(PID.TID 0000.0001) %MON dynstat_vvel_sd              =   1.2233348463099E-02
(PID.TID 0000.0001) %MON dynstat_vvel_del2            =   3.1951956692326E-05
(PID.TID 0000.0001) %MON dynstat_wvel_max             =   2.8644745682832E-08
(PID.TID 0000.0001) %MON dynstat_wvel_min             =  -1.6987853527535E-08
(PID.TID 0000.0001) %MON dynstat_wvel_mean            =  -3.7276211312726E-21
(PID.TID 0000.0001) %MON dynstat_wvel_sd              =   1.0617486857309E-08
(PID.TID 0000.0001) %MON dynstat_wvel_del2            =   5.0498400251800E-12
(PID.TID 0000.0001) %MON dynstat_theta_max            =   2.0000000000000E+01
(PID.TID 0000.0001) %MON dynstat_theta_min            =   2.0000000000000E+01
(PID.TID 0000.0001) %MON dynstat_theta_mean           =   2.0000000000000E+01
(PID.TID 0000.0001) %MON dynstat_theta_sd             =   3.8014036363165E-13
(PID.TID 0000.0001) %MON dynstat_theta_del2           =   0.0000000000000E+00
(PID.TID 0000.0001) %MON dynstat_salt_max             =   3.0000000000000E+01
(PID.TID 0000.0001) %MON dynstat_salt_min             =   3.0000000000000E+01
(PID.TID 0000.0001) %MON dynstat_salt_mean            =   2.9999999999999E+01
(PID.TID 0000.0001) %MON dynstat_salt_sd              =   5.5777604757167E-13
(PID.TID 0000.0001) %MON dynstat_salt_del2            =   0.0000000000000E+00
(PID.TID 0000.0001) %MON trAdv_CFL_u_max              =   2.8557349035791E-03
(PID.TID 0000.0001) %MON trAdv_CFL_v_max              =   3.2270007916552E-03
(PID.TID 0000.0001) %MON trAdv_CFL_w_max              =   7.4197572666761E-09
(PID.TID 0000.0001) %MON advcfl_uvel_max              =   2.8587281087671E-03
(PID.TID 0000.0001) %MON advcfl_vvel_max              =   3.2276715249873E-03
(PID.TID 0000.0001) %MON advcfl_wvel_max              =   1.3749477927759E-08
(PID.TID 0000.0001) %MON advcfl_W_hf_max              =   0.0000000000000E+00
(PID.TID 0000.0001) %MON pe_b_mean                    =   8.5359223768225E-07
(PID.TID 0000.0001) %MON ke_max                       =   1.4455989748386E-03
(PID.TID 0000.0001) %MON ke_mean                      =   1.5937350525692E-04
(PID.TID 0000.0001) %MON ke_vol                       =   6.8893493896486E+15
(PID.TID 0000.0001) %MON vort_r_min                   =  -4.1887879846202E-07
(PID.TID 0000.0001) %MON vort_r_max                   =   1.3716172296885E-06
(PID.TID 0000.0001) %MON vort_a_mean                  =   1.0600000000000E-04
(PID.TID 0000.0001) %MON vort_a_sd                    =   3.5245381090393E-06
(PID.TID 0000.0001) %MON vort_p_mean                  =   1.1652272308690E-04
(PID.TID 0000.0001) %MON vort_p_sd                    =   4.1708663629723E-05
(PID.TID 0000.0001) %MON surfExpan_theta_mean         =  -7.4431404249885E-20
(PID.TID 0000.0001) %MON surfExpan_salt_mean          =  -1.1163352711366E-19
(PID.TID 0000.0001) // =======================================================
(PID.TID 0000.0001) // End MONITOR dynamic field statistics
(PID.TID 0000.0001) // =======================================================
 cg2d: Sum(rhs),rhsMax =  -7.82486885651280E-04  8.50549539881982E-02
 cg2d: Sum(rhs),rhsMax =  -7.83573510075884E-04  8.50671144915224E-02
 cg2d: Sum(rhs),rhsMax =  -7.84658948879344E-04  8.50792327991476E-02
 cg2d: Sum(rhs),rhsMax =  -7.85743130831212E-04  8.50913089465017E-02
 cg2d: Sum(rhs),rhsMax =  -7.86825982817093E-04  8.51033429691291E-02
 cg2d: Sum(rhs),rhsMax =  -7.87907431290112E-04  8.51153349026897E-02
 cg2d: Sum(rhs),rhsMax =  -7.88987400209780E-04  8.51272847829550E-02
 cg2d: Sum(rhs),rhsMax =  -7.90065812671024E-04  8.51391926458123E-02
 cg2d: Sum(rhs),rhsMax =  -7.91142590065217E-04  8.51510585272644E-02
 cg2d: Sum(rhs),rhsMax =  -7.92217652193433E-04  8.51628824634279E-02
 cg2d: Sum(rhs),rhsMax =  -7.93290917374966E-04  8.51746644905336E-02
 cg2d: Sum(rhs),rhsMax =  -7.94362302167031E-04  8.51864046449237E-02
 cg2d: Sum(rhs),rhsMax =  -7.95431721587168E-04  8.51981029630592E-02
 cg2d: Sum(rhs),rhsMax =  -7.96499088778560E-04  8.52097594815119E-02
 cg2d: Sum(rhs),rhsMax =  -7.97564315935841E-04  8.52213742369652E-02
 cg2d: Sum(rhs),rhsMax =  -7.98627312680066E-04  8.52329472662213E-02
 cg2d: Sum(rhs),rhsMax =  -7.99687987034035E-04  8.52444786061894E-02
 cg2d: Sum(rhs),rhsMax =  -8.00746245585814E-04  8.52559682938987E-02
 cg2d: Sum(rhs),rhsMax =  -8.01801993081178E-04  8.52674163664857E-02
 cg2d: Sum(rhs),rhsMax =  -8.02855132225826E-04  8.52788228612020E-02
 cg2d: Sum(rhs),rhsMax =  -8.03905564103358E-04  8.52901878154116E-02
 cg2d: Sum(rhs),rhsMax =  -8.04953187434815E-04  8.53015112665923E-02
 cg2d: Sum(rhs),rhsMax =  -8.05997899576718E-04  8.53127932523327E-02
 cg2d: Sum(rhs),rhsMax =  -8.07039595591370E-04  8.53240338103355E-02
 cg2d: Sum(rhs),rhsMax =  -8.08078168926283E-04  8.53352329784138E-02
 cg2d: Sum(rhs),rhsMax =  -8.09113510752427E-04  8.53463907944938E-02
 cg2d: Sum(rhs),rhsMax =  -8.10145510007309E-04  8.53575072966131E-02
 cg2d: Sum(rhs),rhsMax =  -8.11174054314530E-04  8.53685825229225E-02
 cg2d: Sum(rhs),rhsMax =  -8.12199028587594E-04  8.53796165116822E-02
 cg2d: Sum(rhs),rhsMax =  -8.13220315839833E-04  8.53906093012654E-02
 cg2d: Sum(rhs),rhsMax =  -8.14237797326488E-04  8.54015609301567E-02
 cg2d: Sum(rhs),rhsMax =  -8.15251351435800E-04  8.54124714369500E-02
 cg2d: Sum(rhs),rhsMax =  -8.16260855161122E-04  8.54233408603544E-02
 cg2d: Sum(rhs),rhsMax =  -8.17266183079771E-04  8.54341692391845E-02
 cg2d: Sum(rhs),rhsMax =  -8.18267207402110E-04  8.54449566123695E-02
 cg2d: Sum(rhs),rhsMax =  -8.19263798058242E-04  8.54557030189496E-02
 cg2d: Sum(rhs),rhsMax =  -8.20255823578347E-04  8.54664084980717E-02
 cg2d: Sum(rhs),rhsMax =  -8.21243149306327E-04  8.54770730889972E-02
 cg2d: Sum(rhs),rhsMax =  -8.22225638790801E-04  8.54876968310941E-02
 cg2d: Sum(rhs),rhsMax =  -8.23203153438895E-04  8.54982797638441E-02
 cg2d: Sum(rhs),rhsMax =  -8.24175552537984E-04  8.55088219268368E-02
 cg2d: Sum(rhs),rhsMax =  -8.25142692527633E-04  8.55193233597708E-02
 cg2d: Sum(rhs),rhsMax =  -8.26104428488302E-04  8.55297841024559E-02
 cg2d: Sum(rhs),rhsMax =  -8.27060612458193E-04  8.55402041948112E-02
 cg2d: Sum(rhs),rhsMax =  -8.28011094901274E-04  8.55505836768637E-02
 cg2d: Sum(rhs),rhsMax =  -8.28955724069949E-04  8.55609225887505E-02
 cg2d: Sum(rhs),rhsMax =  -8.29894345681158E-04  8.55712209707207E-02
 cg2d: Sum(rhs),rhsMax =  -8.30826803080584E-04  8.55814788631248E-02
 cg2d: Sum(rhs),rhsMax =  -8.31752938408859E-04  8.55916963064295E-02
 cg2d: Sum(rhs),rhsMax =  -8.32672590937760E-04  8.56018733412072E-02
 cg2d: Sum(rhs),rhsMax =  -8.33585598182956E-04  8.56120100081385E-02
 cg2d: Sum(rhs),rhsMax =  -8.34491795810074E-04  8.56221063480126E-02
 cg2d: Sum(rhs),rhsMax =  -8.35391017112743E-04  8.56321624017256E-02
 cg2d: Sum(rhs),rhsMax =  -8.36283094091617E-04  8.56421782102854E-02
 cg2d: Sum(rhs),rhsMax =  -8.37167855912025E-04  8.56521538148021E-02
 cg2d: Sum(rhs),rhsMax =  -8.38045131320690E-04  8.56620892564990E-02
 cg2d: Sum(rhs),rhsMax =  -8.38914745797666E-04  8.56719845767037E-02
 cg2d: Sum(rhs),rhsMax =  -8.39776524669995E-04  8.56818398168512E-02
 cg2d: Sum(rhs),rhsMax =  -8.40630291202606E-04  8.56916550184860E-02
 cg2d: Sum(rhs),rhsMax =  -8.41475867168793E-04  8.57014302232573E-02
 cg2d: Sum(rhs),rhsMax =  -8.42313072844922E-04  8.57111654729222E-02
 cg2d: Sum(rhs),rhsMax =  -8.43141727822058E-04  8.57208608093459E-02
 cg2d: Sum(rhs),rhsMax =  -8.43961650391058E-04  8.57305162744954E-02
 cg2d: Sum(rhs),rhsMax =  -8.44772657876164E-04  8.57401319104505E-02
 cg2d: Sum(rhs),rhsMax =  -8.45574566821595E-04  8.57497077593947E-02
 cg2d: Sum(rhs),rhsMax =  -8.46367193833217E-04  8.57592438636150E-02
 cg2d: Sum(rhs),rhsMax =  -8.47150353793225E-04  8.57687402655083E-02
 cg2d: Sum(rhs),rhsMax =  -8.47923862744852E-04  8.57781970075763E-02
 cg2d: Sum(rhs),rhsMax =  -8.48687535872424E-04  8.57876141324253E-02
 cg2d: Sum(rhs),rhsMax =  -8.49441188966446E-04  8.57969916827669E-02
 cg2d: Sum(rhs),rhsMax =  -8.50184638120768E-04  8.58063297014202E-02
 cg2d: Sum(rhs),rhsMax =  -8.50917699896293E-04  8.58156282313079E-02
(PID.TID 0000.0001)      cg2d_init_res =   3.60027756385388E-03
(PID.TID 0000.0001)      cg2d_iters(min,last) =      -1      82
(PID.TID 0000.0001)      cg2d_last_res =   9.11461663089586E-08
(PID.TID 0000.0001) // =======================================================
(PID.TID 0000.0001) // Begin MONITOR dynamic field statistics
(PID.TID 0000.0001) // =======================================================
(PID.TID 0000.0001) %MON time_tsnumber                =                  2160
(PID.TID 0000.0001) %MON time_secondsf                =   2.5920000000000E+06
(PID.TID 0000.0001) %MON dynstat_eta_max              =   6.7217079808501E-02
(PID.TID 0000.0001) %MON dynstat_eta_min              =  -3.4401024796027E-02
(PID.TID 0000.0001) %MON dynstat_eta_mean             =   3.6527235522371E-07
(PID.TID 0000.0001) %MON dynstat_eta_sd               =   2.9535102654687E-02
(PID.TID 0000.0001) %MON dynstat_eta_del2             =   9.7110462998933E-06
(PID.TID 0000.0001) %MON dynstat_uvel_max             =   4.9410131838867E-02
(PID.TID 0000.0001) %MON dynstat_uvel_min             =  -1.3839110465108E-02
(PID.TID 0000.0001) %MON dynstat_uvel_mean            =   3.5632011616217E-08
(PID.TID 0000.0001) %MON dynstat_uvel_sd              =   1.3613047360438E-02
(PID.TID 0000.0001) %MON dynstat_uvel_del2            =   2.1396894821582E-05
(PID.TID 0000.0001) %MON dynstat_vvel_max             =   5.4625784667923E-02
(PID.TID 0000.0001) %MON dynstat_vvel_min             =  -2.1396701408710E-02
(PID.TID 0000.0001) %MON dynstat_vvel_mean            =   3.0293233271757E-07
(PID.TID 0000.0001) %MON dynstat_vvel_sd              =   1.2471487306048E-02
(PID.TID 0000.0001) %MON dynstat_vvel_del2            =   3.2402388975922E-05
(PID.TID 0000.0001) %MON dynstat_wvel_max             =   2.8380388059304E-08
(PID.TID 0000.0001) %MON dynstat_wvel_min             =  -1.7188135192264E-08
(PID.TID 0000.0001) %MON dynstat_wvel_mean            =  -2.2728575762206E-22
(PID.TID 0000.0001) %MON dynstat_wvel_sd              =   1.0490870945885E-08
(PID.TID 0000.0001) %MON dynstat_wvel_del2            =   5.0336810688390E-12
(PID.TID 0000.0001) %MON dynstat_theta_max            =   2.0000000000000E+01
(PID.TID 0000.0001) %MON dynstat_theta_min            =   2.0000000000000E+01
(PID.TID 0000.0001) %MON dynstat_theta_mean           =   2.0000000000000E+01
(PID.TID 0000.0001) %MON dynstat_theta_sd             =   3.8014036363165E-13
(PID.TID 0000.0001) %MON dynstat_theta_del2           =   0.0000000000000E+00
(PID.TID 0000.0001) %MON dynstat_salt_max             =   3.0000000000000E+01
(PID.TID 0000.0001) %MON dynstat_salt_min             =   3.0000000000000E+01
(PID.TID 0000.0001) %MON dynstat_salt_mean            =   2.9999999999999E+01
(PID.TID 0000.0001) %MON dynstat_salt_sd              =   5.5777604757167E-13
(PID.TID 0000.0001) %MON dynstat_salt_del2            =   0.0000000000000E+00
(PID.TID 0000.0001) %MON trAdv_CFL_u_max              =   2.9617259214872E-03
(PID.TID 0000.0001) %MON trAdv_CFL_v_max              =   3.2768885565159E-03
(PID.TID 0000.0001) %MON trAdv_CFL_w_max              =   7.3591365596183E-09
(PID.TID 0000.0001) %MON advcfl_uvel_max              =   2.9646079103320E-03
(PID.TID 0000.0001) %MON advcfl_vvel_max              =   3.2775470800754E-03
(PID.TID 0000.0001) %MON advcfl_wvel_max              =   1.3622586268466E-08
(PID.TID 0000.0001) %MON advcfl_W_hf_max              =   0.0000000000000E+00
(PID.TID 0000.0001) %MON pe_b_mean                    =   8.9433507329645E-07
(PID.TID 0000.0001) %MON ke_max                       =   1.4886556233573E-03
(PID.TID 0000.0001) %MON ke_mean                      =   1.6729261910606E-04
(PID.TID 0000.0001) %MON ke_vol                       =   6.8893493896486E+15
(PID.TID 0000.0001) %MON vort_r_min                   =  -4.3327689434163E-07
(PID.TID 0000.0001) %MON vort_r_max                   =   1.3746149634535E-06
(PID.TID 0000.0001) %MON vort_a_mean                  =   1.0600000000000E-04
(PID.TID 0000.0001) %MON vort_a_sd                    =   3.5248554315120E-06
(PID.TID 0000.0001) %MON vort_p_mean                  =   1.1652272308690E-04
(PID.TID 0000.0001) %MON vort_p_sd                    =   4.1711420600059E-05
(PID.TID 0000.0001) %MON surfExpan_theta_mean         =  -4.4660176791290E-21
(PID.TID 0000.0001) %MON surfExpan_salt_mean          =  -6.7138590983025E-21
(PID.TID 0000.0001) // =======================================================
(PID.TID 0000.0001) // End MONITOR dynamic field statistics
(PID.TID 0000.0001) // =======================================================
 cg2d: Sum(rhs),rhsMax =  -8.51640192218169E-04  8.58248873154576E-02
 cg2d: Sum(rhs),rhsMax =  -8.52351933281096E-04  8.58341069970022E-02
 cg2d: Sum(rhs),rhsMax =  -8.53052743911786E-04  8.58432873191803E-02
 cg2d: Sum(rhs),rhsMax =  -8.53742445994687E-04  8.58524283253337E-02
 cg2d: Sum(rhs),rhsMax =  -8.54420863669748E-04  8.58615300589089E-02
 cg2d: Sum(rhs),rhsMax =  -8.55087823664093E-04  8.58705925634567E-02
 cg2d: Sum(rhs),rhsMax =  -8.55743155130619E-04  8.58796158826319E-02
 cg2d: Sum(rhs),rhsMax =  -8.56386690393354E-04  8.58886000601940E-02
 cg2d: Sum(rhs),rhsMax =  -8.57018265391474E-04  8.58975451400049E-02
 cg2d: Sum(rhs),rhsMax =  -8.57637720116055E-04  8.59064511660322E-02
 cg2d: Sum(rhs),rhsMax =  -8.58244898540989E-04  8.59153181823436E-02
 cg2d: Sum(rhs),rhsMax =  -8.58839649570918E-04  8.59241462331129E-02
 cg2d: Sum(rhs),rhsMax =  -8.59421827018064E-04  8.59329353626169E-02
 cg2d: Sum(rhs),rhsMax =  -8.59991290272998E-04  8.59416856152338E-02
 cg2d: Sum(rhs),rhsMax =  -8.60547904998284E-04  8.59503970354440E-02
 cg2d: Sum(rhs),rhsMax =  -8.61091543347681E-04  8.59590696678325E-02
 cg2d: Sum(rhs),rhsMax =  -8.61622084401915E-04  8.59677035570874E-02
 cg2d: Sum(rhs),rhsMax =  -8.62139414723351E-04  8.59762987479959E-02
 cg2d: Sum(rhs),rhsMax =  -8.62643428791957E-04  8.59848552854489E-02
 cg2d: Sum(rhs),rhsMax =  -8.63134029696976E-04  8.59933732144401E-02
 cg2d: Sum(rhs),rhsMax =  -8.63611129546856E-04  8.60018525800627E-02
 cg2d: Sum(rhs),rhsMax =  -8.64074649998069E-04  8.60102934275132E-02
 cg2d: Sum(rhs),rhsMax =  -8.64524522700656E-04  8.60186958020907E-02
 cg2d: Sum(rhs),rhsMax =  -8.64960689896228E-04  8.60270597491911E-02
 cg2d: Sum(rhs),rhsMax =  -8.65383105198972E-04  8.60353853143160E-02
 cg2d: Sum(rhs),rhsMax =  -8.65791733205903E-04  8.60436725430641E-02
 cg2d: Sum(rhs),rhsMax =  -8.66186551674010E-04  8.60519214811378E-02
 cg2d: Sum(rhs),rhsMax =  -8.66567550029937E-04  8.60601321743387E-02
 cg2d: Sum(rhs),rhsMax =  -8.66934731286295E-04  8.60683046685682E-02
 cg2d: Sum(rhs),rhsMax =  -8.67288111976366E-04  8.60764390098292E-02
 cg2d: Sum(rhs),rhsMax =  -8.67627722955375E-04  8.60845352442233E-02
 cg2d: Sum(rhs),rhsMax =  -8.67953609197319E-04  8.60925934179515E-02
 cg2d: Sum(rhs),rhsMax =  -8.68265831166733E-04  8.61006135773160E-02
 cg2d: Sum(rhs),rhsMax =  -8.68564464427950E-04  8.61085957687194E-02
 cg2d: Sum(rhs),rhsMax =  -8.68914543188021E-04  8.61165400554223E-02
 cg2d: Sum(rhs),rhsMax =  -8.69250214090799E-04  8.61244464552204E-02
 cg2d: Sum(rhs),rhsMax =  -8.69571620311902E-04  8.61323150248359E-02
 cg2d: Sum(rhs),rhsMax =  -8.69878898929397E-04  8.61401458077971E-02
 cg2d: Sum(rhs),rhsMax =  -8.70172215787991E-04  8.61479388562539E-02
 cg2d: Sum(rhs),rhsMax =  -8.70451758929705E-04  8.61556942182913E-02
 cg2d: Sum(rhs),rhsMax =  -8.70717737527654E-04  8.61634119404509E-02
 cg2d: Sum(rhs),rhsMax =  -8.70970380739470E-04  8.61710920695273E-02
 cg2d: Sum(rhs),rhsMax =  -8.71209934560625E-04  8.61787346526570E-02
 cg2d: Sum(rhs),rhsMax =  -8.71436662082063E-04  8.61863397371915E-02
 cg2d: Sum(rhs),rhsMax =  -8.71650843884124E-04  8.61939073706320E-02
 cg2d: Sum(rhs),rhsMax =  -8.71852778722128E-04  8.62014376006036E-02
 cg2d: Sum(rhs),rhsMax =  -8.72042782845264E-04  8.62089304748206E-02
 cg2d: Sum(rhs),rhsMax =  -8.72221190391393E-04  8.62163860410768E-02
 cg2d: Sum(rhs),rhsMax =  -8.72388352885927E-04  8.62238043472432E-02
 cg2d: Sum(rhs),rhsMax =  -8.72544639613206E-04  8.62311854412801E-02
 cg2d: Sum(rhs),rhsMax =  -8.72690434857760E-04  8.62385293712402E-02
 cg2d: Sum(rhs),rhsMax =  -8.72826139341979E-04  8.62458361852798E-02
 cg2d: Sum(rhs),rhsMax =  -8.72952169055651E-04  8.62531059316547E-02
 cg2d: Sum(rhs),rhsMax =  -8.73068954676089E-04  8.62603386587201E-02
 cg2d: Sum(rhs),rhsMax =  -8.73176939967513E-04  8.62675344149290E-02
 cg2d: Sum(rhs),rhsMax =  -8.73276583060304E-04  8.62746932488274E-02
 cg2d: Sum(rhs),rhsMax =  -8.73368353634694E-04  8.62818152090562E-02
 cg2d: Sum(rhs),rhsMax =  -8.73452732963537E-04  8.62889003443501E-02
 cg2d: Sum(rhs),rhsMax =  -8.73530213223568E-04  8.62959487035402E-02
 cg2d: Sum(rhs),rhsMax =  -8.73601296018153E-04  8.63029603355520E-02
 cg2d: Sum(rhs),rhsMax =  -8.73666491857935E-04  8.63099352894061E-02
 cg2d: Sum(rhs),rhsMax =  -8.73726319496507E-04  8.63168736142195E-02
 cg2d: Sum(rhs),rhsMax =  -8.73781303038751E-04  8.63237753592020E-02
 cg2d: Sum(rhs),rhsMax =  -8.73831973985301E-04  8.63306405736601E-02
 cg2d: Sum(rhs),rhsMax =  -8.73878867343435E-04  8.63374693069925E-02
 cg2d: Sum(rhs),rhsMax =  -8.73922522160262E-04  8.63442616086932E-02
 cg2d: Sum(rhs),rhsMax =  -8.73963479855827E-04  8.63510175283496E-02
 cg2d: Sum(rhs),rhsMax =  -8.74002283528477E-04  8.63577371156437E-02
 cg2d: Sum(rhs),rhsMax =  -8.74039476487835E-04  8.63644204203518E-02
 cg2d: Sum(rhs),rhsMax =  -8.74059989180213E-04  8.63726102612627E-02
 cg2d: Sum(rhs),rhsMax =  -8.74069311813636E-04  8.63818178912186E-02
 cg2d: Sum(rhs),rhsMax =  -8.74078654999663E-04  8.63909888251544E-02
(PID.TID 0000.0001)      cg2d_init_res =   3.52291408702497E-03
(PID.TID 0000.0001)      cg2d_iters(min,last) =      -1      81
(PID.TID 0000.0001)      cg2d_last_res =   8.99730228416597E-08
(PID.TID 0000.0001) // =======================================================
(PID.TID 0000.0001) // Begin MONITOR dynamic field statistics
(PID.TID 0000.0001) // =======================================================
(PID.TID 0000.0001) %MON time_tsnumber                =                  2232
(PID.TID 0000.0001) %MON time_secondsf                =   2.6784000000000E+06
(PID.TID 0000.0001) %MON dynstat_eta_max              =   6.8824768377763E-02
(PID.TID 0000.0001) %MON dynstat_eta_min              =  -3.5137579616758E-02
(PID.TID 0000.0001) %MON dynstat_eta_mean             =   3.7741330674093E-07
(PID.TID 0000.0001) %MON dynstat_eta_sd               =   3.0210888086357E-02
(PID.TID 0000.0001) %MON dynstat_eta_del2             =   1.0035536441591E-05
(PID.TID 0000.0001) %MON dynstat_uvel_max             =   5.1134260806528E-02
(PID.TID 0000.0001) %MON dynstat_uvel_min             =  -1.4330160666599E-02
(PID.TID 0000.0001) %MON dynstat_uvel_mean            =   3.3305025421000E-08
(PID.TID 0000.0001) %MON dynstat_uvel_sd              =   1.3985902858828E-02
(PID.TID 0000.0001) %MON dynstat_uvel_del2            =   2.2202476061256E-05
(PID.TID 0000.0001) %MON dynstat_vvel_max             =   5.5341745918509E-02
(PID.TID 0000.0001) %MON dynstat_vvel_min             =  -2.2345493130387E-02
(PID.TID 0000.0001) %MON dynstat_vvel_mean            =   2.7837982022015E-07
(PID.TID 0000.0001) %MON dynstat_vvel_sd              =   1.2711415120920E-02
(PID.TID 0000.0001) %MON dynstat_vvel_del2            =   3.2805074342107E-05
(PID.TID 0000.0001) %MON dynstat_wvel_max             =   2.8077904047095E-08
(PID.TID 0000.0001) %MON dynstat_wvel_min             =  -1.7368483615865E-08
(PID.TID 0000.0001) %MON dynstat_wvel_mean            =   2.8261178562793E-21
(PID.TID 0000.0001) %MON dynstat_wvel_sd              =   1.0386449217914E-08
(PID.TID 0000.0001) %MON dynstat_wvel_del2            =   5.0139059399965E-12
(PID.TID 0000.0001) %MON dynstat_theta_max            =   2.0000000000000E+01
(PID.TID 0000.0001) %MON dynstat_theta_min            =   2.0000000000000E+01
(PID.TID 0000.0001) %MON dynstat_theta_mean           =   2.0000000000000E+01
(PID.TID 0000.0001) %MON dynstat_theta_sd             =   3.8014036363165E-13
(PID.TID 0000.0001) %MON dynstat_theta_del2           =   0.0000000000000E+00
(PID.TID 0000.0001) %MON dynstat_salt_max             =   3.0000000000000E+01
(PID.TID 0000.0001) %MON dynstat_salt_min             =   3.0000000000000E+01
(PID.TID 0000.0001) %MON dynstat_salt_mean            =   2.9999999999999E+01
(PID.TID 0000.0001) %MON dynstat_salt_sd              =   5.5777604757167E-13
(PID.TID 0000.0001) %MON dynstat_salt_del2            =   0.0000000000000E+00
(PID.TID 0000.0001) %MON trAdv_CFL_u_max              =   3.0651658774600E-03
(PID.TID 0000.0001) %MON trAdv_CFL_v_max              =   3.3199674430697E-03
(PID.TID 0000.0001) %MON trAdv_CFL_w_max              =   7.2845535205948E-09
(PID.TID 0000.0001) %MON advcfl_uvel_max              =   3.0680556483917E-03
(PID.TID 0000.0001) %MON advcfl_vvel_max              =   3.3205047551106E-03
(PID.TID 0000.0001) %MON advcfl_wvel_max              =   1.3477393942606E-08
(PID.TID 0000.0001) %MON advcfl_W_hf_max              =   0.0000000000000E+00
(PID.TID 0000.0001) %MON pe_b_mean                    =   9.3572940600513E-07
(PID.TID 0000.0001) %MON ke_max                       =   1.5284711708697E-03
(PID.TID 0000.0001) %MON ke_mean                      =   1.7530870261674E-04
(PID.TID 0000.0001) %MON ke_vol                       =   6.8893493896486E+15
(PID.TID 0000.0001) %MON vort_r_min                   =  -4.4726855308043E-07
(PID.TID 0000.0001) %MON vort_r_max                   =   1.3755253784516E-06
(PID.TID 0000.0001) %MON vort_a_mean                  =   1.0600000000000E-04
(PID.TID 0000.0001) %MON vort_a_sd                    =   3.5251734498488E-06
(PID.TID 0000.0001) %MON vort_p_mean                  =   1.1652272308690E-04
(PID.TID 0000.0001) %MON vort_p_sd                    =   4.1714071457008E-05
(PID.TID 0000.0001) %MON surfExpan_theta_mean         =   5.6519401504652E-20
(PID.TID 0000.0001) %MON surfExpan_salt_mean          =   8.4772791255874E-20
(PID.TID 0000.0001) // =======================================================
(PID.TID 0000.0001) // End MONITOR dynamic field statistics
(PID.TID 0000.0001) // =======================================================
 cg2d: Sum(rhs),rhsMax =  -8.74088553989003E-04  8.64001231043002E-02
 cg2d: Sum(rhs),rhsMax =  -8.74099538594155E-04  8.64092207699734E-02
 cg2d: Sum(rhs),rhsMax =  -8.74112132874819E-04  8.64182818635860E-02
 cg2d: Sum(rhs),rhsMax =  -8.74126855508996E-04  8.64273064266372E-02
 cg2d: Sum(rhs),rhsMax =  -8.74144216258473E-04  8.64362945007202E-02
 cg2d: Sum(rhs),rhsMax =  -8.74164718426065E-04  8.64452461275159E-02
 cg2d: Sum(rhs),rhsMax =  -8.74188854709565E-04  8.64541613487967E-02
 cg2d: Sum(rhs),rhsMax =  -8.74217109385643E-04  8.64630402064252E-02
 cg2d: Sum(rhs),rhsMax =  -8.74249955376098E-04  8.64718827423534E-02
 cg2d: Sum(rhs),rhsMax =  -8.74287855503877E-04  8.64806889986244E-02
 cg2d: Sum(rhs),rhsMax =  -8.74331260878776E-04  8.64894590173697E-02
 cg2d: Sum(rhs),rhsMax =  -8.74380609936654E-04  8.64981928408131E-02
 cg2d: Sum(rhs),rhsMax =  -8.74436329357527E-04  8.65068905112639E-02
 cg2d: Sum(rhs),rhsMax =  -8.74498832604334E-04  8.65155520711245E-02
 cg2d: Sum(rhs),rhsMax =  -8.74568520348312E-04  8.65241775628853E-02
 cg2d: Sum(rhs),rhsMax =  -8.74645778545055E-04  8.65327670291244E-02
 cg2d: Sum(rhs),rhsMax =  -8.74730979996362E-04  8.65413205125115E-02
 cg2d: Sum(rhs),rhsMax =  -8.74824483881570E-04  8.65498380558039E-02
 cg2d: Sum(rhs),rhsMax =  -8.74926634125320E-04  8.65583197018460E-02
 cg2d: Sum(rhs),rhsMax =  -8.75037761219524E-04  8.65667654935754E-02
 cg2d: Sum(rhs),rhsMax =  -8.75158180680673E-04  8.65751754740121E-02
 cg2d: Sum(rhs),rhsMax =  -8.75288193594718E-04  8.65835496862702E-02
 cg2d: Sum(rhs),rhsMax =  -8.75428086925038E-04  8.65918881735489E-02
 cg2d: Sum(rhs),rhsMax =  -8.75578132463067E-04  8.66001909791335E-02
 cg2d: Sum(rhs),rhsMax =  -8.75738588824584E-04  8.66084581464025E-02
 cg2d: Sum(rhs),rhsMax =  -8.75909699424502E-04  8.66166897188163E-02
 cg2d: Sum(rhs),rhsMax =  -8.76091693939096E-04  8.66248857399294E-02
 cg2d: Sum(rhs),rhsMax =  -8.76284788327675E-04  8.66330462533773E-02
 cg2d: Sum(rhs),rhsMax =  -8.76489184869746E-04  8.66411713028847E-02
 cg2d: Sum(rhs),rhsMax =  -8.76705072253868E-04  8.66492609322687E-02
 cg2d: Sum(rhs),rhsMax =  -8.76932625646955E-04  8.66573151854261E-02
 cg2d: Sum(rhs),rhsMax =  -8.77172007715348E-04  8.66653341063426E-02
 cg2d: Sum(rhs),rhsMax =  -8.77423368546119E-04  8.66733177390926E-02
 cg2d: Sum(rhs),rhsMax =  -8.77686845567289E-04  8.66812661278377E-02
 cg2d: Sum(rhs),rhsMax =  -8.77962564254618E-04  8.66891793168212E-02
 cg2d: Sum(rhs),rhsMax =  -8.78250638365812E-04  8.66970573503765E-02
 cg2d: Sum(rhs),rhsMax =  -8.78551170369505E-04  8.67049002729217E-02
 cg2d: Sum(rhs),rhsMax =  -8.78805736055890E-04  8.67127081522700E-02
 cg2d: Sum(rhs),rhsMax =  -8.79072061508095E-04  8.67204809805956E-02
 cg2d: Sum(rhs),rhsMax =  -8.79350203920711E-04  8.67282188326235E-02
 cg2d: Sum(rhs),rhsMax =  -8.79640228132087E-04  8.67359217574428E-02
 cg2d: Sum(rhs),rhsMax =  -8.79942178874799E-04  8.67435897947735E-02
 cg2d: Sum(rhs),rhsMax =  -8.80256085446975E-04  8.67512229891655E-02
 cg2d: Sum(rhs),rhsMax =  -8.80581964329857E-04  8.67588213860712E-02
 cg2d: Sum(rhs),rhsMax =  -8.80919824710301E-04  8.67663850305582E-02
 cg2d: Sum(rhs),rhsMax =  -8.81269669213629E-04  8.67739139676275E-02
 cg2d: Sum(rhs),rhsMax =  -8.81631495553932E-04  8.67814082424589E-02
 cg2d: Sum(rhs),rhsMax =  -8.82005295333558E-04  8.67888679004336E-02
 cg2d: Sum(rhs),rhsMax =  -8.82391053419630E-04  8.67962929870559E-02
 cg2d: Sum(rhs),rhsMax =  -8.82788748513226E-04  8.68036835479012E-02
 cg2d: Sum(rhs),rhsMax =  -8.83198352430569E-04  8.68110396285924E-02
 cg2d: Sum(rhs),rhsMax =  -8.83619830664321E-04  8.68183612748105E-02
 cg2d: Sum(rhs),rhsMax =  -8.84053144145955E-04  8.68256485323093E-02
 cg2d: Sum(rhs),rhsMax =  -8.84498248164198E-04  8.68329014469321E-02
 cg2d: Sum(rhs),rhsMax =  -8.84955093819820E-04  8.68401200646156E-02
 cg2d: Sum(rhs),rhsMax =  -8.85423627698678E-04  8.68473044313839E-02
 cg2d: Sum(rhs),rhsMax =  -8.85903792072228E-04  8.68544545933487E-02
 cg2d: Sum(rhs),rhsMax =  -8.86395525200437E-04  8.68615705967052E-02
 cg2d: Sum(rhs),rhsMax =  -8.86898761637181E-04  8.68686524877245E-02
 cg2d: Sum(rhs),rhsMax =  -8.87413432721883E-04  8.68757003127610E-02
 cg2d: Sum(rhs),rhsMax =  -8.87939466377125E-04  8.68827141182483E-02
 cg2d: Sum(rhs),rhsMax =  -8.88476787410167E-04  8.68896939507033E-02
 cg2d: Sum(rhs),rhsMax =  -8.89025317844218E-04  8.68966398567256E-02
 cg2d: Sum(rhs),rhsMax =  -8.89584977725750E-04  8.69035518829949E-02
 cg2d: Sum(rhs),rhsMax =  -8.90155683659782E-04  8.69104300762761E-02
 cg2d: Sum(rhs),rhsMax =  -8.90737351621637E-04  8.69172744834134E-02
 cg2d: Sum(rhs),rhsMax =  -8.91329893845539E-04  8.69240851513328E-02
 cg2d: Sum(rhs),rhsMax =  -8.91933222025795E-04  8.69308621270396E-02
 cg2d: Sum(rhs),rhsMax =  -8.92547245985739E-04  8.69376054576230E-02
 cg2d: Sum(rhs),rhsMax =  -8.93171873520993E-04  8.69443151902521E-02
 cg2d: Sum(rhs),rhsMax =  -8.93807011551725E-04  8.69509913721741E-02
 cg2d: Sum(rhs),rhsMax =  -8.94452565832322E-04  8.69576340507183E-02
(PID.TID 0000.0001)      cg2d_init_res =   3.44984971781067E-03
(PID.TID 0000.0001)      cg2d_iters(min,last) =      -1      82
(PID.TID 0000.0001)      cg2d_last_res =   9.75565247526007E-08
(PID.TID 0000.0001) // =======================================================
(PID.TID 0000.0001) // Begin MONITOR dynamic field statistics
(PID.TID 0000.0001) // =======================================================
(PID.TID 0000.0001) %MON time_tsnumber                =                  2304
(PID.TID 0000.0001) %MON time_secondsf                =   2.7648000000000E+06
(PID.TID 0000.0001) %MON dynstat_eta_max              =   7.0385625149385E-02
(PID.TID 0000.0001) %MON dynstat_eta_min              =  -3.5884621022002E-02
(PID.TID 0000.0001) %MON dynstat_eta_mean             =   3.8901270798908E-07
(PID.TID 0000.0001) %MON dynstat_eta_sd               =   3.0883768362836E-02
(PID.TID 0000.0001) %MON dynstat_eta_del2             =   1.0354909022865E-05
(PID.TID 0000.0001) %MON dynstat_uvel_max             =   5.2806487890157E-02
(PID.TID 0000.0001) %MON dynstat_uvel_min             =  -1.4872038878517E-02
(PID.TID 0000.0001) %MON dynstat_uvel_mean            =   2.8144470490096E-08
(PID.TID 0000.0001) %MON dynstat_uvel_sd              =   1.4349684316232E-02
(PID.TID 0000.0001) %MON dynstat_uvel_del2            =   2.2994300681910E-05
(PID.TID 0000.0001) %MON dynstat_vvel_max             =   5.5968583579198E-02
(PID.TID 0000.0001) %MON dynstat_vvel_min             =  -2.3307589882707E-02
(PID.TID 0000.0001) %MON dynstat_vvel_mean            =   2.5621938818177E-07
(PID.TID 0000.0001) %MON dynstat_vvel_sd              =   1.2954153446292E-02
(PID.TID 0000.0001) %MON dynstat_vvel_del2            =   3.3167957827137E-05
(PID.TID 0000.0001) %MON dynstat_wvel_max             =   2.7826219985145E-08
(PID.TID 0000.0001) %MON dynstat_wvel_min             =  -1.7496469806065E-08
(PID.TID 0000.0001) %MON dynstat_wvel_mean            =   2.7651857534592E-21
(PID.TID 0000.0001) %MON dynstat_wvel_sd              =   1.0303244085197E-08
(PID.TID 0000.0001) %MON dynstat_wvel_del2            =   4.9883466856630E-12
(PID.TID 0000.0001) %MON dynstat_theta_max            =   2.0000000000000E+01
(PID.TID 0000.0001) %MON dynstat_theta_min            =   2.0000000000000E+01
(PID.TID 0000.0001) %MON dynstat_theta_mean           =   2.0000000000000E+01
(PID.TID 0000.0001) %MON dynstat_theta_sd             =   3.8014036363165E-13
(PID.TID 0000.0001) %MON dynstat_theta_del2           =   0.0000000000000E+00
(PID.TID 0000.0001) %MON dynstat_salt_max             =   3.0000000000000E+01
(PID.TID 0000.0001) %MON dynstat_salt_min             =   3.0000000000000E+01
(PID.TID 0000.0001) %MON dynstat_salt_mean            =   2.9999999999999E+01
(PID.TID 0000.0001) %MON dynstat_salt_sd              =   5.5777604757167E-13
(PID.TID 0000.0001) %MON dynstat_salt_del2            =   0.0000000000000E+00
(PID.TID 0000.0001) %MON trAdv_CFL_u_max              =   3.1654956875536E-03
(PID.TID 0000.0001) %MON trAdv_CFL_v_max              =   3.3575753143102E-03
(PID.TID 0000.0001) %MON trAdv_CFL_w_max              =   7.2327215180352E-09
(PID.TID 0000.0001) %MON advcfl_uvel_max              =   3.1683892734094E-03
(PID.TID 0000.0001) %MON advcfl_vvel_max              =   3.3581150147519E-03
(PID.TID 0000.0001) %MON advcfl_wvel_max              =   1.3356585592870E-08
(PID.TID 0000.0001) %MON advcfl_W_hf_max              =   0.0000000000000E+00
(PID.TID 0000.0001) %MON pe_b_mean                    =   9.7787617811751E-07
(PID.TID 0000.0001) %MON ke_max                       =   1.5642372978749E-03
(PID.TID 0000.0001) %MON ke_mean                      =   1.8342563651017E-04
(PID.TID 0000.0001) %MON ke_vol                       =   6.8893493896486E+15
(PID.TID 0000.0001) %MON vort_r_min                   =  -4.6155546198574E-07
(PID.TID 0000.0001) %MON vort_r_max                   =   1.3757593683064E-06
(PID.TID 0000.0001) %MON vort_a_mean                  =   1.0600000000000E-04
(PID.TID 0000.0001) %MON vort_a_sd                    =   3.5254928155079E-06
(PID.TID 0000.0001) %MON vort_p_mean                  =   1.1652272308690E-04
(PID.TID 0000.0001) %MON vort_p_sd                    =   4.1716621846055E-05
(PID.TID 0000.0001) %MON surfExpan_theta_mean         =   5.5500009526415E-20
(PID.TID 0000.0001) %MON surfExpan_salt_mean          =   8.3241176914347E-20
(PID.TID 0000.0001) // =======================================================
(PID.TID 0000.0001) // End MONITOR dynamic field statistics
(PID.TID 0000.0001) // =======================================================
 cg2d: Sum(rhs),rhsMax =  -8.95108441416669E-04  8.69642432732946E-02
 cg2d: Sum(rhs),rhsMax =  -8.95774540909423E-04  8.69708190873925E-02
 cg2d: Sum(rhs),rhsMax =  -8.96450768068911E-04  8.69773615405816E-02
 cg2d: Sum(rhs),rhsMax =  -8.97137025007655E-04  8.69838706805117E-02
 cg2d: Sum(rhs),rhsMax =  -8.97833213301443E-04  8.69903465549102E-02
 cg2d: Sum(rhs),rhsMax =  -8.98463111212101E-04  8.69967892581485E-02
 cg2d: Sum(rhs),rhsMax =  -8.99101633185802E-04  8.70031987388600E-02
 cg2d: Sum(rhs),rhsMax =  -8.99748713964563E-04  8.70095751006172E-02
 cg2d: Sum(rhs),rhsMax =  -9.00404268778444E-04  8.70159183917026E-02
 cg2d: Sum(rhs),rhsMax =  -9.01068208701110E-04  8.70222286574956E-02
 cg2d: Sum(rhs),rhsMax =  -9.01740435765089E-04  8.70285059460656E-02
 cg2d: Sum(rhs),rhsMax =  -9.02420847442981E-04  8.70347503059019E-02
 cg2d: Sum(rhs),rhsMax =  -9.03109341222622E-04  8.70409617851430E-02
 cg2d: Sum(rhs),rhsMax =  -9.03805817291541E-04  8.70471404319177E-02
 cg2d: Sum(rhs),rhsMax =  -9.04510178527520E-04  8.70532862946071E-02
 cg2d: Sum(rhs),rhsMax =  -9.05222329419732E-04  8.70593994218404E-02
 cg2d: Sum(rhs),rhsMax =  -9.05942175323905E-04  8.70654798623966E-02
 cg2d: Sum(rhs),rhsMax =  -9.06669621527637E-04  8.70715276651123E-02
 cg2d: Sum(rhs),rhsMax =  -9.07404573160433E-04  8.70775428788434E-02
 cg2d: Sum(rhs),rhsMax =  -9.08146936143942E-04  8.70835255524798E-02
 cg2d: Sum(rhs),rhsMax =  -9.08896616564060E-04  8.70894757349712E-02
 cg2d: Sum(rhs),rhsMax =  -9.09653521220289E-04  8.70953934753519E-02
 cg2d: Sum(rhs),rhsMax =  -9.10417558256896E-04  8.71012788227460E-02
 cg2d: Sum(rhs),rhsMax =  -9.11188636289941E-04  8.71071318263686E-02
 cg2d: Sum(rhs),rhsMax =  -9.11966664797689E-04  8.71129525355174E-02
 cg2d: Sum(rhs),rhsMax =  -9.12751554047977E-04  8.71187409995608E-02
 cg2d: Sum(rhs),rhsMax =  -9.13543214994879E-04  8.71244972679412E-02
 cg2d: Sum(rhs),rhsMax =  -9.14341559685190E-04  8.71302213901729E-02
 cg2d: Sum(rhs),rhsMax =  -9.15146500670885E-04  8.71359134158441E-02
 cg2d: Sum(rhs),rhsMax =  -9.15957951355593E-04  8.71415733946173E-02
 cg2d: Sum(rhs),rhsMax =  -9.16775826188414E-04  8.71472013762332E-02
 cg2d: Sum(rhs),rhsMax =  -9.16940926494920E-04  8.71527971146492E-02
 cg2d: Sum(rhs),rhsMax =  -9.17106616018439E-04  8.71583612780814E-02
 cg2d: Sum(rhs),rhsMax =  -9.17272842328516E-04  8.71638935834725E-02
 cg2d: Sum(rhs),rhsMax =  -9.17439621882149E-04  8.71693940695981E-02
 cg2d: Sum(rhs),rhsMax =  -9.17606947346748E-04  8.71748628117739E-02
 cg2d: Sum(rhs),rhsMax =  -9.17774804523111E-04  8.71802998649253E-02
 cg2d: Sum(rhs),rhsMax =  -9.17943176167474E-04  8.71857052772915E-02
 cg2d: Sum(rhs),rhsMax =  -9.18112046195407E-04  8.71910790956889E-02
 cg2d: Sum(rhs),rhsMax =  -9.18281400057563E-04  8.71964213675149E-02
 cg2d: Sum(rhs),rhsMax =  -9.18451225328690E-04  8.72017321419337E-02
 cg2d: Sum(rhs),rhsMax =  -9.18621509943353E-04  8.72070114697858E-02
 cg2d: Sum(rhs),rhsMax =  -9.18792243280606E-04  8.72122594026859E-02
 cg2d: Sum(rhs),rhsMax =  -9.18963414200863E-04  8.72174759921801E-02
 cg2d: Sum(rhs),rhsMax =  -9.19135011279233E-04  8.72226612893649E-02
 cg2d: Sum(rhs),rhsMax =  -9.19307023613824E-04  8.72278153449734E-02
 cg2d: Sum(rhs),rhsMax =  -9.19479440368971E-04  8.72329382096459E-02
 cg2d: Sum(rhs),rhsMax =  -9.19652251130762E-04  8.72380299341566E-02
 cg2d: Sum(rhs),rhsMax =  -9.19825445848968E-04  8.72430905695074E-02
 cg2d: Sum(rhs),rhsMax =  -9.19999014698136E-04  8.72481201668951E-02
 cg2d: Sum(rhs),rhsMax =  -9.20172948192573E-04  8.72531187776329E-02
 cg2d: Sum(rhs),rhsMax =  -9.20347237041225E-04  8.72580864530804E-02
 cg2d: Sum(rhs),rhsMax =  -9.20521872349162E-04  8.72630232446218E-02
 cg2d: Sum(rhs),rhsMax =  -9.20696845222189E-04  8.72679292036691E-02
 cg2d: Sum(rhs),rhsMax =  -9.20872147004714E-04  8.72728043816854E-02
 cg2d: Sum(rhs),rhsMax =  -9.21047769394973E-04  8.72776488302075E-02
 cg2d: Sum(rhs),rhsMax =  -9.21223704209925E-04  8.72824626008602E-02
 cg2d: Sum(rhs),rhsMax =  -9.21399943688169E-04  8.72872457453516E-02
 cg2d: Sum(rhs),rhsMax =  -9.21576479601685E-04  8.72919983154757E-02
 cg2d: Sum(rhs),rhsMax =  -9.21753304819469E-04  8.72967203630956E-02
 cg2d: Sum(rhs),rhsMax =  -9.21930412043862E-04  8.73014119401470E-02
 cg2d: Sum(rhs),rhsMax =  -9.22107793734736E-04  8.73060730986309E-02
 cg2d: Sum(rhs),rhsMax =  -9.22285443168410E-04  8.73107038906147E-02
 cg2d: Sum(rhs),rhsMax =  -9.22463353452155E-04  8.73153043682306E-02
 cg2d: Sum(rhs),rhsMax =  -9.22641517727932E-04  8.73198745836826E-02
 cg2d: Sum(rhs),rhsMax =  -9.22819929922391E-04  8.73244145892392E-02
 cg2d: Sum(rhs),rhsMax =  -9.22998583286941E-04  8.73289244372442E-02
 cg2d: Sum(rhs),rhsMax =  -9.23177471610866E-04  8.73334041801075E-02
 cg2d: Sum(rhs),rhsMax =  -9.23356589189506E-04  8.73378538703105E-02
 cg2d: Sum(rhs),rhsMax =  -9.23535929917955E-04  8.73422735604050E-02
 cg2d: Sum(rhs),rhsMax =  -9.23715487972245E-04  8.73466633030106E-02
 cg2d: Sum(rhs),rhsMax =  -9.23895257835216E-04  8.73510231508181E-02
(PID.TID 0000.0001)      cg2d_init_res =   3.38808054150279E-03
(PID.TID 0000.0001)      cg2d_iters(min,last) =      -1      88
(PID.TID 0000.0001)      cg2d_last_res =   9.17535383400166E-08
(PID.TID 0000.0001) // =======================================================
(PID.TID 0000.0001) // Begin MONITOR dynamic field statistics
(PID.TID 0000.0001) // =======================================================
(PID.TID 0000.0001) %MON time_tsnumber                =                  2376
(PID.TID 0000.0001) %MON time_secondsf                =   2.8512000000000E+06
(PID.TID 0000.0001) %MON dynstat_eta_max              =   7.1985208395164E-02
(PID.TID 0000.0001) %MON dynstat_eta_min              =  -3.6640422195993E-02
(PID.TID 0000.0001) %MON dynstat_eta_mean             =   4.0340777896968E-07
(PID.TID 0000.0001) %MON dynstat_eta_sd               =   3.1555509495158E-02
(PID.TID 0000.0001) %MON dynstat_eta_del2             =   1.0669251898256E-05
(PID.TID 0000.0001) %MON dynstat_uvel_max             =   5.4424144500406E-02
(PID.TID 0000.0001) %MON dynstat_uvel_min             =  -1.5453234214787E-02
(PID.TID 0000.0001) %MON dynstat_uvel_mean            =   2.0821702224251E-08
(PID.TID 0000.0001) %MON dynstat_uvel_sd              =   1.4704523470231E-02
(PID.TID 0000.0001) %MON dynstat_uvel_del2            =   2.3770462187383E-05
(PID.TID 0000.0001) %MON dynstat_vvel_max             =   5.6549468847464E-02
(PID.TID 0000.0001) %MON dynstat_vvel_min             =  -2.4281251810658E-02
(PID.TID 0000.0001) %MON dynstat_vvel_mean            =   2.3685585515971E-07
(PID.TID 0000.0001) %MON dynstat_vvel_sd              =   1.3200408556513E-02
(PID.TID 0000.0001) %MON dynstat_vvel_del2            =   3.3499268194391E-05
(PID.TID 0000.0001) %MON dynstat_wvel_max             =   2.7579969742219E-08
(PID.TID 0000.0001) %MON dynstat_wvel_min             =  -1.7549688381550E-08
(PID.TID 0000.0001) %MON dynstat_wvel_mean            =  -1.5898977936659E-21
(PID.TID 0000.0001) %MON dynstat_wvel_sd              =   1.0239096348328E-08
(PID.TID 0000.0001) %MON dynstat_wvel_del2            =   4.9607897443333E-12
(PID.TID 0000.0001) %MON dynstat_theta_max            =   2.0000000000000E+01
(PID.TID 0000.0001) %MON dynstat_theta_min            =   2.0000000000000E+01
(PID.TID 0000.0001) %MON dynstat_theta_mean           =   2.0000000000000E+01
(PID.TID 0000.0001) %MON dynstat_theta_sd             =   3.8014036363165E-13
(PID.TID 0000.0001) %MON dynstat_theta_del2           =   0.0000000000000E+00
(PID.TID 0000.0001) %MON dynstat_salt_max             =   3.0000000000000E+01
(PID.TID 0000.0001) %MON dynstat_salt_min             =   3.0000000000000E+01
(PID.TID 0000.0001) %MON dynstat_salt_mean            =   2.9999999999999E+01
(PID.TID 0000.0001) %MON dynstat_salt_sd              =   5.5777604757167E-13
(PID.TID 0000.0001) %MON dynstat_salt_del2            =   0.0000000000000E+00
(PID.TID 0000.0001) %MON trAdv_CFL_u_max              =   3.2625548247224E-03
(PID.TID 0000.0001) %MON trAdv_CFL_v_max              =   3.3925370618288E-03
(PID.TID 0000.0001) %MON trAdv_CFL_w_max              =   7.1688785913195E-09
(PID.TID 0000.0001) %MON advcfl_uvel_max              =   3.2654486700244E-03
(PID.TID 0000.0001) %MON advcfl_vvel_max              =   3.3929681308479E-03
(PID.TID 0000.0001) %MON advcfl_wvel_max              =   1.3238385476265E-08
(PID.TID 0000.0001) %MON advcfl_W_hf_max              =   0.0000000000000E+00
(PID.TID 0000.0001) %MON pe_b_mean                    =   1.0208776288157E-06
(PID.TID 0000.0001) %MON ke_max                       =   1.5931453736377E-03
(PID.TID 0000.0001) %MON ke_mean                      =   1.9164676193875E-04
(PID.TID 0000.0001) %MON ke_vol                       =   6.8893493896486E+15
(PID.TID 0000.0001) %MON vort_r_min                   =  -4.7477857752569E-07
(PID.TID 0000.0001) %MON vort_r_max                   =   1.3736233547122E-06
(PID.TID 0000.0001) %MON vort_a_mean                  =   1.0600000000000E-04
(PID.TID 0000.0001) %MON vort_a_sd                    =   3.5258142041159E-06
(PID.TID 0000.0001) %MON vort_p_mean                  =   1.1652272308690E-04
(PID.TID 0000.0001) %MON vort_p_sd                    =   4.1719076997514E-05
(PID.TID 0000.0001) %MON surfExpan_theta_mean         =  -3.1745796115325E-20
(PID.TID 0000.0001) %MON surfExpan_salt_mean          =  -4.7595951871118E-20
(PID.TID 0000.0001) // =======================================================
(PID.TID 0000.0001) // End MONITOR dynamic field statistics
(PID.TID 0000.0001) // =======================================================
 cg2d: Sum(rhs),rhsMax =  -9.24075233818340E-04  8.73553531565832E-02
 cg2d: Sum(rhs),rhsMax =  -9.24255410843185E-04  8.73596533731333E-02
 cg2d: Sum(rhs),rhsMax =  -9.24435783630547E-04  8.73639238533613E-02
 cg2d: Sum(rhs),rhsMax =  -9.24616346633478E-04  8.73681646502281E-02
 cg2d: Sum(rhs),rhsMax =  -9.24797095194888E-04  8.73723758167590E-02
 cg2d: Sum(rhs),rhsMax =  -9.24978024159449E-04  8.73765574060527E-02
 cg2d: Sum(rhs),rhsMax =  -9.25159128970437E-04  8.73807094712737E-02
 cg2d: Sum(rhs),rhsMax =  -9.25340404679044E-04  8.73848320656488E-02
 cg2d: Sum(rhs),rhsMax =  -9.25521846787208E-04  8.73889252424801E-02
 cg2d: Sum(rhs),rhsMax =  -9.25703450950159E-04  8.73929890551292E-02
 cg2d: Sum(rhs),rhsMax =  -9.25885212776312E-04  8.73970235570300E-02
 cg2d: Sum(rhs),rhsMax =  -9.26067128005144E-04  8.74010288016797E-02
 cg2d: Sum(rhs),rhsMax =  -9.26249191999538E-04  8.74050048426432E-02
 cg2d: Sum(rhs),rhsMax =  -9.26431401102976E-04  8.74089517335509E-02
 cg2d: Sum(rhs),rhsMax =  -9.26613750972301E-04  8.74128695281005E-02
 cg2d: Sum(rhs),rhsMax =  -9.26796237997827E-04  8.74167582800534E-02
 cg2d: Sum(rhs),rhsMax =  -9.26978858091974E-04  8.74206180432397E-02
 cg2d: Sum(rhs),rhsMax =  -9.27161607489919E-04  8.74244488715519E-02
 cg2d: Sum(rhs),rhsMax =  -9.27344482325104E-04  8.74282508189498E-02
 cg2d: Sum(rhs),rhsMax =  -9.27527479362672E-04  8.74320239394566E-02
 cg2d: Sum(rhs),rhsMax =  -9.27710594694743E-04  8.74357682871633E-02
 cg2d: Sum(rhs),rhsMax =  -9.27893825052803E-04  8.74394839162242E-02
 cg2d: Sum(rhs),rhsMax =  -9.28077166715627E-04  8.74431708808581E-02
 cg2d: Sum(rhs),rhsMax =  -9.28260616818801E-04  8.74468292353482E-02
 cg2d: Sum(rhs),rhsMax =  -9.28444171463132E-04  8.74504590340434E-02
 cg2d: Sum(rhs),rhsMax =  -9.28627827901790E-04  8.74540603313548E-02
 cg2d: Sum(rhs),rhsMax =  -9.28811582758596E-04  8.74576331817592E-02
 cg2d: Sum(rhs),rhsMax =  -9.28995432891894E-04  8.74611776397956E-02
 cg2d: Sum(rhs),rhsMax =  -9.29179375256037E-04  8.74646937600692E-02
 cg2d: Sum(rhs),rhsMax =  -9.29363407013696E-04  8.74681815972453E-02
 cg2d: Sum(rhs),rhsMax =  -9.29547525331528E-04  8.74716412060539E-02
 cg2d: Sum(rhs),rhsMax =  -9.29731726912100E-04  8.74750726412913E-02
 cg2d: Sum(rhs),rhsMax =  -9.29916009282931E-04  8.74784759578120E-02
 cg2d: Sum(rhs),rhsMax =  -9.30100369460188E-04  8.74818512105359E-02
 cg2d: Sum(rhs),rhsMax =  -9.30284804800879E-04  8.74851984544439E-02
 cg2d: Sum(rhs),rhsMax =  -9.30469312433863E-04  8.74885177445819E-02
 cg2d: Sum(rhs),rhsMax =  -9.30653889981110E-04  8.74918091360567E-02
 cg2d: Sum(rhs),rhsMax =  -9.30838535044953E-04  8.74950726840349E-02
 cg2d: Sum(rhs),rhsMax =  -9.31023244716837E-04  8.74983084437481E-02
 cg2d: Sum(rhs),rhsMax =  -9.31208016354379E-04  8.75015164704901E-02
 cg2d: Sum(rhs),rhsMax =  -9.31392847788450E-04  8.75046968196145E-02
 cg2d: Sum(rhs),rhsMax =  -9.31577736692800E-04  8.75078495465352E-02
 cg2d: Sum(rhs),rhsMax =  -9.31762680546733E-04  8.75109747067314E-02
 cg2d: Sum(rhs),rhsMax =  -9.31947676776543E-04  8.75140723557391E-02
 cg2d: Sum(rhs),rhsMax =  -9.32132723431178E-04  8.75171425491568E-02
 cg2d: Sum(rhs),rhsMax =  -9.32317818373576E-04  8.75201853426445E-02
 cg2d: Sum(rhs),rhsMax =  -9.32502958846924E-04  8.75232007919236E-02
 cg2d: Sum(rhs),rhsMax =  -9.32688143115288E-04  8.75261889527719E-02
 cg2d: Sum(rhs),rhsMax =  -9.32873368953060E-04  8.75291498810323E-02
 cg2d: Sum(rhs),rhsMax =  -9.33058633978020E-04  8.75320836326026E-02
 cg2d: Sum(rhs),rhsMax =  -9.33243936271744E-04  8.75349902634467E-02
 cg2d: Sum(rhs),rhsMax =  -9.33429273978648E-04  8.75378698295823E-02
 cg2d: Sum(rhs),rhsMax =  -9.33614644721040E-04  8.75407223870891E-02
 cg2d: Sum(rhs),rhsMax =  -9.33800046559546E-04  8.75435479921078E-02
 cg2d: Sum(rhs),rhsMax =  -9.33985477554272E-04  8.75463467008347E-02
 cg2d: Sum(rhs),rhsMax =  -9.34170935782398E-04  8.75491185695270E-02
 cg2d: Sum(rhs),rhsMax =  -9.34356419467344E-04  8.75518636545022E-02
 cg2d: Sum(rhs),rhsMax =  -9.34541926442784E-04  8.75545820121324E-02
 cg2d: Sum(rhs),rhsMax =  -9.34727455023501E-04  8.75572736988538E-02
 cg2d: Sum(rhs),rhsMax =  -9.34913003646082E-04  8.75599387711550E-02
 cg2d: Sum(rhs),rhsMax =  -9.35098570164761E-04  8.75625772855864E-02
 cg2d: Sum(rhs),rhsMax =  -9.35284152686764E-04  8.75651892987560E-02
 cg2d: Sum(rhs),rhsMax =  -9.35469749739709E-04  8.75677748673269E-02
 cg2d: Sum(rhs),rhsMax =  -9.35655359252441E-04  8.75703340480234E-02
 cg2d: Sum(rhs),rhsMax =  -9.35840979677548E-04  8.75728668976263E-02
 cg2d: Sum(rhs),rhsMax =  -9.36026609473454E-04  8.75753734729709E-02
 cg2d: Sum(rhs),rhsMax =  -9.36212246780067E-04  8.75778538309535E-02
 cg2d: Sum(rhs),rhsMax =  -9.36397890138743E-04  8.75803080285233E-02
 cg2d: Sum(rhs),rhsMax =  -9.36583537634941E-04  8.75827361226904E-02
 cg2d: Sum(rhs),rhsMax =  -9.36769187811229E-04  8.75851381705177E-02
 cg2d: Sum(rhs),rhsMax =  -9.36954839182328E-04  8.75875142291273E-02
 cg2d: Sum(rhs),rhsMax =  -9.37127267424315E-04  8.75911002276256E-02
(PID.TID 0000.0001)      cg2d_init_res =   3.33706310751112E-03
(PID.TID 0000.0001)      cg2d_iters(min,last) =      -1      88
(PID.TID 0000.0001)      cg2d_last_res =   9.50642332426921E-08
(PID.TID 0000.0001) // =======================================================
(PID.TID 0000.0001) // Begin MONITOR dynamic field statistics
(PID.TID 0000.0001) // =======================================================
(PID.TID 0000.0001) %MON time_tsnumber                =                  2448
(PID.TID 0000.0001) %MON time_secondsf                =   2.9376000000000E+06
(PID.TID 0000.0001) %MON dynstat_eta_max              =   7.3567049109225E-02
(PID.TID 0000.0001) %MON dynstat_eta_min              =  -3.7402812929772E-02
(PID.TID 0000.0001) %MON dynstat_eta_mean             =   4.1030189218895E-07
(PID.TID 0000.0001) %MON dynstat_eta_sd               =   3.2227695655175E-02
(PID.TID 0000.0001) %MON dynstat_eta_del2             =   1.0978672380011E-05
(PID.TID 0000.0001) %MON dynstat_uvel_max             =   5.5985147841874E-02
(PID.TID 0000.0001) %MON dynstat_uvel_min             =  -1.6076237906459E-02
(PID.TID 0000.0001) %MON dynstat_uvel_mean            =   1.2016921200418E-08
(PID.TID 0000.0001) %MON dynstat_uvel_sd              =   1.5050684842995E-02
(PID.TID 0000.0001) %MON dynstat_uvel_del2            =   2.4529352793596E-05
(PID.TID 0000.0001) %MON dynstat_vvel_max             =   5.7004388017422E-02
(PID.TID 0000.0001) %MON dynstat_vvel_min             =  -2.5264621506926E-02
(PID.TID 0000.0001) %MON dynstat_vvel_mean            =   2.2054666463283E-07
(PID.TID 0000.0001) %MON dynstat_vvel_sd              =   1.3450598330465E-02
(PID.TID 0000.0001) %MON dynstat_vvel_del2            =   3.3807337860717E-05
(PID.TID 0000.0001) %MON dynstat_wvel_max             =   2.7295614804025E-08
(PID.TID 0000.0001) %MON dynstat_wvel_min             =  -1.7505976062675E-08
(PID.TID 0000.0001) %MON dynstat_wvel_mean            =   1.6412943498128E-21
(PID.TID 0000.0001) %MON dynstat_wvel_sd              =   1.0190954397294E-08
(PID.TID 0000.0001) %MON dynstat_wvel_del2            =   4.9306097100172E-12
(PID.TID 0000.0001) %MON dynstat_theta_max            =   2.0000000000000E+01
(PID.TID 0000.0001) %MON dynstat_theta_min            =   2.0000000000000E+01
(PID.TID 0000.0001) %MON dynstat_theta_mean           =   2.0000000000000E+01
(PID.TID 0000.0001) %MON dynstat_theta_sd             =   3.8014036363165E-13
(PID.TID 0000.0001) %MON dynstat_theta_del2           =   0.0000000000000E+00
(PID.TID 0000.0001) %MON dynstat_salt_max             =   3.0000000000000E+01
(PID.TID 0000.0001) %MON dynstat_salt_min             =   3.0000000000000E+01
(PID.TID 0000.0001) %MON dynstat_salt_mean            =   2.9999999999999E+01
(PID.TID 0000.0001) %MON dynstat_salt_sd              =   5.5777604757167E-13
(PID.TID 0000.0001) %MON dynstat_salt_del2            =   0.0000000000000E+00
(PID.TID 0000.0001) %MON trAdv_CFL_u_max              =   3.3562178952476E-03
(PID.TID 0000.0001) %MON trAdv_CFL_v_max              =   3.4199333811184E-03
(PID.TID 0000.0001) %MON trAdv_CFL_w_max              =   7.1081787220217E-09
(PID.TID 0000.0001) %MON advcfl_uvel_max              =   3.3591088705125E-03
(PID.TID 0000.0001) %MON advcfl_vvel_max              =   3.4202632810453E-03
(PID.TID 0000.0001) %MON advcfl_wvel_max              =   1.3101895105932E-08
(PID.TID 0000.0001) %MON advcfl_W_hf_max              =   0.0000000000000E+00
(PID.TID 0000.0001) %MON pe_b_mean                    =   1.0648337334900E-06
(PID.TID 0000.0001) %MON ke_max                       =   1.6228237098515E-03
(PID.TID 0000.0001) %MON ke_mean                      =   1.9997471028754E-04
(PID.TID 0000.0001) %MON ke_vol                       =   6.8893493896486E+15
(PID.TID 0000.0001) %MON vort_r_min                   =  -4.8879124940797E-07
(PID.TID 0000.0001) %MON vort_r_max                   =   1.3702896668350E-06
(PID.TID 0000.0001) %MON vort_a_mean                  =   1.0600000000000E-04
(PID.TID 0000.0001) %MON vort_a_sd                    =   3.5261382898670E-06
(PID.TID 0000.0001) %MON vort_p_mean                  =   1.1652272308690E-04
(PID.TID 0000.0001) %MON vort_p_sd                    =   4.1721441718280E-05
(PID.TID 0000.0001) %MON surfExpan_theta_mean         =   3.2784757624742E-20
(PID.TID 0000.0001) %MON surfExpan_salt_mean          =   4.9201136991744E-20
(PID.TID 0000.0001) // =======================================================
(PID.TID 0000.0001) // End MONITOR dynamic field statistics
(PID.TID 0000.0001) // =======================================================
 cg2d: Sum(rhs),rhsMax =  -9.37286773370589E-04  8.75958673970205E-02
 cg2d: Sum(rhs),rhsMax =  -9.37446285377987E-04  8.76006071759551E-02
 cg2d: Sum(rhs),rhsMax =  -9.37605801851107E-04  8.76053196132833E-02
 cg2d: Sum(rhs),rhsMax =  -9.37765321003689E-04  8.76100047579173E-02
 cg2d: Sum(rhs),rhsMax =  -9.37924841514625E-04  8.76146626588214E-02
 cg2d: Sum(rhs),rhsMax =  -9.38084362207426E-04  8.76192933650244E-02
 cg2d: Sum(rhs),rhsMax =  -9.38243881662280E-04  8.76238969256029E-02
 cg2d: Sum(rhs),rhsMax =  -9.38403398440306E-04  8.76284733896965E-02
 cg2d: Sum(rhs),rhsMax =  -9.38562911124860E-04  8.76330228064978E-02
 cg2d: Sum(rhs),rhsMax =  -9.38722418615298E-04  8.76375452252563E-02
 cg2d: Sum(rhs),rhsMax =  -9.38881919474690E-04  8.76420406952791E-02
 cg2d: Sum(rhs),rhsMax =  -9.39041412070359E-04  8.76465092659264E-02
 cg2d: Sum(rhs),rhsMax =  -9.39200895859318E-04  8.76509509866126E-02
 cg2d: Sum(rhs),rhsMax =  -9.39360368739456E-04  8.76553659068138E-02
 cg2d: Sum(rhs),rhsMax =  -9.39519829984782E-04  8.76597540760550E-02
 cg2d: Sum(rhs),rhsMax =  -9.39679278107404E-04  8.76641155439197E-02
 cg2d: Sum(rhs),rhsMax =  -9.39838712156891E-04  8.76684503600457E-02
 cg2d: Sum(rhs),rhsMax =  -9.39998130875933E-04  8.76727585741253E-02
 cg2d: Sum(rhs),rhsMax =  -9.40157532830829E-04  8.76770402359071E-02
 cg2d: Sum(rhs),rhsMax =  -9.40316916927378E-04  8.76812953951917E-02
 cg2d: Sum(rhs),rhsMax =  -9.40476281778669E-04  8.76855241018360E-02
 cg2d: Sum(rhs),rhsMax =  -9.40635626913516E-04  8.76897264057492E-02
 cg2d: Sum(rhs),rhsMax =  -9.40794950429338E-04  8.76939023568979E-02
 cg2d: Sum(rhs),rhsMax =  -9.40954251224122E-04  8.76980520052998E-02
 cg2d: Sum(rhs),rhsMax =  -9.41113528559519E-04  8.77021754010271E-02
 cg2d: Sum(rhs),rhsMax =  -9.41272781211699E-04  8.77062725942080E-02
 cg2d: Sum(rhs),rhsMax =  -9.41432007842920E-04  8.77103436350183E-02
 cg2d: Sum(rhs),rhsMax =  -9.41591207876284E-04  8.77143885736934E-02
 cg2d: Sum(rhs),rhsMax =  -9.41750379489889E-04  8.77184074605191E-02
 cg2d: Sum(rhs),rhsMax =  -9.41909521820085E-04  8.77224003458339E-02
 cg2d: Sum(rhs),rhsMax =  -9.42068634071751E-04  8.77263672800308E-02
 cg2d: Sum(rhs),rhsMax =  -9.42227714967894E-04  8.77303083135550E-02
 cg2d: Sum(rhs),rhsMax =  -9.42386763272164E-04  8.77342234969015E-02
 cg2d: Sum(rhs),rhsMax =  -9.42545778287937E-04  8.77381128806214E-02
 cg2d: Sum(rhs),rhsMax =  -9.42704758929609E-04  8.77419765153182E-02
 cg2d: Sum(rhs),rhsMax =  -9.42863704213551E-04  8.77458144516440E-02
 cg2d: Sum(rhs),rhsMax =  -9.43022612767040E-04  8.77496267403060E-02
 cg2d: Sum(rhs),rhsMax =  -9.43181483872350E-04  8.77534134320625E-02
 cg2d: Sum(rhs),rhsMax =  -9.43340316214375E-04  8.77571745777230E-02
 cg2d: Sum(rhs),rhsMax =  -9.43499109019235E-04  8.77609102281485E-02
 cg2d: Sum(rhs),rhsMax =  -9.43657861587999E-04  8.77646204342516E-02
 cg2d: Sum(rhs),rhsMax =  -9.43816572293286E-04  8.77683052469952E-02
 cg2d: Sum(rhs),rhsMax =  -9.43975240778761E-04  8.77719647173960E-02
 cg2d: Sum(rhs),rhsMax =  -9.44133865660873E-04  8.77755988965189E-02
 cg2d: Sum(rhs),rhsMax =  -9.44292446101887E-04  8.77792078354801E-02
 cg2d: Sum(rhs),rhsMax =  -9.44450981206924E-04  8.77827915854465E-02
 cg2d: Sum(rhs),rhsMax =  -9.44609470016494E-04  8.77863501976374E-02
 cg2d: Sum(rhs),rhsMax =  -9.44767911513985E-04  8.77898837233191E-02
 cg2d: Sum(rhs),rhsMax =  -9.44926304756896E-04  8.77933922138098E-02
 cg2d: Sum(rhs),rhsMax =  -9.45084648842305E-04  8.77968757204785E-02
 cg2d: Sum(rhs),rhsMax =  -9.45242943123908E-04  8.78003342947421E-02
 cg2d: Sum(rhs),rhsMax =  -9.45401186151190E-04  8.78037679880681E-02
 cg2d: Sum(rhs),rhsMax =  -9.45559377420618E-04  8.78071768519736E-02
 cg2d: Sum(rhs),rhsMax =  -9.45717516181874E-04  8.78105609380255E-02
 cg2d: Sum(rhs),rhsMax =  -9.45875600886277E-04  8.78139202978397E-02
 cg2d: Sum(rhs),rhsMax =  -9.46033631262420E-04  8.78172549830797E-02
 cg2d: Sum(rhs),rhsMax =  -9.46191606019244E-04  8.78205650454610E-02
 cg2d: Sum(rhs),rhsMax =  -9.46349524503301E-04  8.78238505367445E-02
 cg2d: Sum(rhs),rhsMax =  -9.46507385971726E-04  8.78271115087427E-02
 cg2d: Sum(rhs),rhsMax =  -9.46665189358344E-04  8.78303480133144E-02
 cg2d: Sum(rhs),rhsMax =  -9.46822933726232E-04  8.78335601023665E-02
 cg2d: Sum(rhs),rhsMax =  -9.46980618308928E-04  8.78367478278556E-02
 cg2d: Sum(rhs),rhsMax =  -9.47138242508420E-04  8.78399112417864E-02
 cg2d: Sum(rhs),rhsMax =  -9.47295804923809E-04  8.78430503962090E-02
 cg2d: Sum(rhs),rhsMax =  -9.47453305280781E-04  8.78461653432249E-02
 cg2d: Sum(rhs),rhsMax =  -9.47610742347095E-04  8.78492561349803E-02
 cg2d: Sum(rhs),rhsMax =  -9.47768115696000E-04  8.78523228236690E-02
 cg2d: Sum(rhs),rhsMax =  -9.47925424054863E-04  8.78553654615336E-02
 cg2d: Sum(rhs),rhsMax =  -9.48082666847778E-04  8.78583841008601E-02
 cg2d: Sum(rhs),rhsMax =  -9.48239843358799E-04  8.78613787939898E-02
 cg2d: Sum(rhs),rhsMax =  -9.48396952853238E-04  8.78643495932993E-02
 cg2d: Sum(rhs),rhsMax =  -9.48553994175462E-04  8.78672965512206E-02
(PID.TID 0000.0001)      cg2d_init_res =   3.28994879771708E-03
(PID.TID 0000.0001)      cg2d_iters(min,last) =      -1      88
(PID.TID 0000.0001)      cg2d_last_res =   9.45788129048896E-08
(PID.TID 0000.0001) // =======================================================
(PID.TID 0000.0001) // Begin MONITOR dynamic field statistics
(PID.TID 0000.0001) // =======================================================
(PID.TID 0000.0001) %MON time_tsnumber                =                  2520
(PID.TID 0000.0001) %MON time_secondsf                =   3.0240000000000E+06
(PID.TID 0000.0001) %MON dynstat_eta_max              =   7.5214302209019E-02
(PID.TID 0000.0001) %MON dynstat_eta_min              =  -3.8169281384875E-02
(PID.TID 0000.0001) %MON dynstat_eta_mean             =   4.1660362739705E-07
(PID.TID 0000.0001) %MON dynstat_eta_sd               =   3.2901696296520E-02
(PID.TID 0000.0001) %MON dynstat_eta_del2             =   1.1283296027547E-05
(PID.TID 0000.0001) %MON dynstat_uvel_max             =   5.7487993846977E-02
(PID.TID 0000.0001) %MON dynstat_uvel_min             =  -1.6737448040410E-02
(PID.TID 0000.0001) %MON dynstat_uvel_mean            =   2.3882937947243E-09
(PID.TID 0000.0001) %MON dynstat_uvel_sd              =   1.5388534308906E-02
(PID.TID 0000.0001) %MON dynstat_uvel_del2            =   2.5269657463317E-05
(PID.TID 0000.0001) %MON dynstat_vvel_max             =   5.7433287979297E-02
(PID.TID 0000.0001) %MON dynstat_vvel_min             =  -2.6273667443186E-02
(PID.TID 0000.0001) %MON dynstat_vvel_mean            =   2.0741944258577E-07
(PID.TID 0000.0001) %MON dynstat_vvel_sd              =   1.3704887685130E-02
(PID.TID 0000.0001) %MON dynstat_vvel_del2            =   3.4100421413851E-05
(PID.TID 0000.0001) %MON dynstat_wvel_max             =   2.7085462451796E-08
(PID.TID 0000.0001) %MON dynstat_wvel_min             =  -1.7358508436009E-08
(PID.TID 0000.0001) %MON dynstat_wvel_mean            =   2.3558530099561E-21
(PID.TID 0000.0001) %MON dynstat_wvel_sd              =   1.0155242899761E-08
(PID.TID 0000.0001) %MON dynstat_wvel_del2            =   4.8996199950568E-12
(PID.TID 0000.0001) %MON dynstat_theta_max            =   2.0000000000000E+01
(PID.TID 0000.0001) %MON dynstat_theta_min            =   2.0000000000000E+01
(PID.TID 0000.0001) %MON dynstat_theta_mean           =   2.0000000000000E+01
(PID.TID 0000.0001) %MON dynstat_theta_sd             =   3.8014036363165E-13
(PID.TID 0000.0001) %MON dynstat_theta_del2           =   0.0000000000000E+00
(PID.TID 0000.0001) %MON dynstat_salt_max             =   3.0000000000000E+01
(PID.TID 0000.0001) %MON dynstat_salt_min             =   3.0000000000000E+01
(PID.TID 0000.0001) %MON dynstat_salt_mean            =   2.9999999999999E+01
(PID.TID 0000.0001) %MON dynstat_salt_sd              =   5.5777604757167E-13
(PID.TID 0000.0001) %MON dynstat_salt_del2            =   0.0000000000000E+00
(PID.TID 0000.0001) %MON trAdv_CFL_u_max              =   3.4463942208123E-03
(PID.TID 0000.0001) %MON trAdv_CFL_v_max              =   3.4456445030275E-03
(PID.TID 0000.0001) %MON trAdv_CFL_w_max              =   7.0535508550005E-09
(PID.TID 0000.0001) %MON advcfl_uvel_max              =   3.4492796308186E-03
(PID.TID 0000.0001) %MON advcfl_vvel_max              =   3.4459972787578E-03
(PID.TID 0000.0001) %MON advcfl_wvel_max              =   1.3001021976862E-08
(PID.TID 0000.0001) %MON advcfl_W_hf_max              =   0.0000000000000E+00
(PID.TID 0000.0001) %MON pe_b_mean                    =   1.1098387190764E-06
(PID.TID 0000.0001) %MON ke_max                       =   1.6504169253978E-03
(PID.TID 0000.0001) %MON ke_mean                      =   2.0841127972967E-04
(PID.TID 0000.0001) %MON ke_vol                       =   6.8893493896486E+15
(PID.TID 0000.0001) %MON vort_r_min                   =  -5.0144766744023E-07
(PID.TID 0000.0001) %MON vort_r_max                   =   1.3671088793926E-06
(PID.TID 0000.0001) %MON vort_a_mean                  =   1.0600000000000E-04
(PID.TID 0000.0001) %MON vort_a_sd                    =   3.5264657216881E-06
(PID.TID 0000.0001) %MON vort_p_mean                  =   1.1652272308690E-04
(PID.TID 0000.0001) %MON vort_p_sd                    =   4.1723720386819E-05
(PID.TID 0000.0001) %MON surfExpan_theta_mean         =   4.7189521426263E-20
(PID.TID 0000.0001) %MON surfExpan_salt_mean          =   7.0781750830899E-20
(PID.TID 0000.0001) // =======================================================
(PID.TID 0000.0001) // End MONITOR dynamic field statistics
(PID.TID 0000.0001) // =======================================================
 cg2d: Sum(rhs),rhsMax =  -9.48710966863952E-04  8.78702197202273E-02
 cg2d: Sum(rhs),rhsMax =  -9.48867869646999E-04  8.78731191528424E-02
 cg2d: Sum(rhs),rhsMax =  -9.49024702350216E-04  8.78759949016341E-02
 cg2d: Sum(rhs),rhsMax =  -9.49181463817474E-04  8.78788470192155E-02
 cg2d: Sum(rhs),rhsMax =  -9.49338153363587E-04  8.78816755582468E-02
 cg2d: Sum(rhs),rhsMax =  -9.49494770370013E-04  8.78844805714329E-02
 cg2d: Sum(rhs),rhsMax =  -9.49651313758727E-04  8.78872621115241E-02
 cg2d: Sum(rhs),rhsMax =  -9.49807783117578E-04  8.78900202313182E-02
 cg2d: Sum(rhs),rhsMax =  -9.49964177659475E-04  8.78927549836551E-02
 cg2d: Sum(rhs),rhsMax =  -9.50120496341068E-04  8.78954664214218E-02
 cg2d: Sum(rhs),rhsMax =  -9.50276738574767E-04  8.78981545975513E-02
 cg2d: Sum(rhs),rhsMax =  -9.50432903632545E-04  8.79008195650178E-02
 cg2d: Sum(rhs),rhsMax =  -9.50588990916393E-04  8.79034613768424E-02
 cg2d: Sum(rhs),rhsMax =  -9.50744999491542E-04  8.79060800860913E-02
 cg2d: Sum(rhs),rhsMax =  -9.50900928851691E-04  8.79086757458723E-02
 cg2d: Sum(rhs),rhsMax =  -9.51056778153419E-04  8.79112484093421E-02
 cg2d: Sum(rhs),rhsMax =  -9.51212546604161E-04  8.79137981296944E-02
 cg2d: Sum(rhs),rhsMax =  -9.51368233618348E-04  8.79163249601739E-02
 cg2d: Sum(rhs),rhsMax =  -9.51523838356033E-04  8.79188289540629E-02
 cg2d: Sum(rhs),rhsMax =  -9.51679360238981E-04  8.79213101646927E-02
 cg2d: Sum(rhs),rhsMax =  -9.51834798785602E-04  8.79237686454335E-02
 cg2d: Sum(rhs),rhsMax =  -9.51990152968110E-04  8.79262044497006E-02
 cg2d: Sum(rhs),rhsMax =  -9.52145422256294E-04  8.79286176309521E-02
 cg2d: Sum(rhs),rhsMax =  -9.52300605888693E-04  8.79310082426905E-02
 cg2d: Sum(rhs),rhsMax =  -9.52455703263935E-04  8.79333763384576E-02
 cg2d: Sum(rhs),rhsMax =  -9.52610713776194E-04  8.79357219718417E-02
 cg2d: Sum(rhs),rhsMax =  -9.52765636674780E-04  8.79380451964690E-02
 cg2d: Sum(rhs),rhsMax =  -9.52920471261907E-04  8.79403460660130E-02
 cg2d: Sum(rhs),rhsMax =  -9.53075217178041E-04  8.79426246341856E-02
 cg2d: Sum(rhs),rhsMax =  -9.53229873216454E-04  8.79448809547425E-02
 cg2d: Sum(rhs),rhsMax =  -9.53384439484568E-04  8.79471150814807E-02
 cg2d: Sum(rhs),rhsMax =  -9.53538914923984E-04  8.79493270682383E-02
 cg2d: Sum(rhs),rhsMax =  -9.53693298605309E-04  8.79515169688943E-02
 cg2d: Sum(rhs),rhsMax =  -9.53847590408296E-04  8.79536848373719E-02
 cg2d: Sum(rhs),rhsMax =  -9.54001789795787E-04  8.79558307276326E-02
 cg2d: Sum(rhs),rhsMax =  -9.54155895666730E-04  8.79579546936797E-02
 cg2d: Sum(rhs),rhsMax =  -9.54309907922595E-04  8.79600567895590E-02
 cg2d: Sum(rhs),rhsMax =  -9.54463825320811E-04  8.79621370693535E-02
 cg2d: Sum(rhs),rhsMax =  -9.54617648069752E-04  8.79641955871887E-02
 cg2d: Sum(rhs),rhsMax =  -9.54771375187981E-04  8.79662323972337E-02
 cg2d: Sum(rhs),rhsMax =  -9.54925006115881E-04  8.79682475536912E-02
 cg2d: Sum(rhs),rhsMax =  -9.55078540354187E-04  8.79702411108099E-02
 cg2d: Sum(rhs),rhsMax =  -9.55231977119973E-04  8.79722131228745E-02
 cg2d: Sum(rhs),rhsMax =  -9.55385315923783E-04  8.79741636442114E-02
 cg2d: Sum(rhs),rhsMax =  -9.55538556564869E-04  8.79760927291871E-02
 cg2d: Sum(rhs),rhsMax =  -9.55691698220667E-04  8.79780004322053E-02
 cg2d: Sum(rhs),rhsMax =  -9.55844739942618E-04  8.79798868077106E-02
 cg2d: Sum(rhs),rhsMax =  -9.55997682009869E-04  8.79817519101867E-02
 cg2d: Sum(rhs),rhsMax =  -9.56150523296562E-04  8.79835957941568E-02
 cg2d: Sum(rhs),rhsMax =  -9.56303263578314E-04  8.79854185141809E-02
 cg2d: Sum(rhs),rhsMax =  -9.56455902483187E-04  8.79872201248588E-02
 cg2d: Sum(rhs),rhsMax =  -9.56608439088603E-04  8.79890006808302E-02
 cg2d: Sum(rhs),rhsMax =  -9.56760873096766E-04  8.79907602367714E-02
 cg2d: Sum(rhs),rhsMax =  -9.56913204108664E-04  8.79924988473955E-02
 cg2d: Sum(rhs),rhsMax =  -9.57065431479696E-04  8.79942165674587E-02
 cg2d: Sum(rhs),rhsMax =  -9.57217554915964E-04  8.79959134517499E-02
 cg2d: Sum(rhs),rhsMax =  -9.57369573552785E-04  8.79975895550980E-02
 cg2d: Sum(rhs),rhsMax =  -9.57521487556474E-04  8.79992449323689E-02
 cg2d: Sum(rhs),rhsMax =  -9.57673295985888E-04  8.80008796384661E-02
 cg2d: Sum(rhs),rhsMax =  -9.57824998486418E-04  8.80024937283314E-02
 cg2d: Sum(rhs),rhsMax =  -9.57976594999042E-04  8.80040872569415E-02
 cg2d: Sum(rhs),rhsMax =  -9.58128084432602E-04  8.80056602793128E-02
 cg2d: Sum(rhs),rhsMax =  -9.58279467138681E-04  8.80072128504941E-02
 cg2d: Sum(rhs),rhsMax =  -9.58430741948589E-04  8.80087450255763E-02
 cg2d: Sum(rhs),rhsMax =  -9.58581908854700E-04  8.80102568596829E-02
 cg2d: Sum(rhs),rhsMax =  -9.58732967447484E-04  8.80117484079760E-02
 cg2d: Sum(rhs),rhsMax =  -9.58883917499893E-04  8.80132197256508E-02
 cg2d: Sum(rhs),rhsMax =  -9.59034758370017E-04  8.80146708679424E-02
 cg2d: Sum(rhs),rhsMax =  -9.59185489587878E-04  8.80161018901186E-02
 cg2d: Sum(rhs),rhsMax =  -9.59336111239491E-04  8.80175128474844E-02
 cg2d: Sum(rhs),rhsMax =  -9.59486622372791E-04  8.80189037953792E-02
 cg2d: Sum(rhs),rhsMax =  -9.59637023047532E-04  8.80202747891796E-02
(PID.TID 0000.0001)      cg2d_init_res =   3.25301876301886E-03
(PID.TID 0000.0001)      cg2d_iters(min,last) =      -1      88
(PID.TID 0000.0001)      cg2d_last_res =   9.19038948521234E-08
(PID.TID 0000.0001) // =======================================================
(PID.TID 0000.0001) // Begin MONITOR dynamic field statistics
(PID.TID 0000.0001) // =======================================================
(PID.TID 0000.0001) %MON time_tsnumber                =                  2592
(PID.TID 0000.0001) %MON time_secondsf                =   3.1104000000000E+06
(PID.TID 0000.0001) %MON dynstat_eta_max              =   7.6884952405208E-02
(PID.TID 0000.0001) %MON dynstat_eta_min              =  -3.8937130117393E-02
(PID.TID 0000.0001) %MON dynstat_eta_mean             =   4.2219375497456E-07
(PID.TID 0000.0001) %MON dynstat_eta_sd               =   3.3578640778258E-02
(PID.TID 0000.0001) %MON dynstat_eta_del2             =   1.1583265702292E-05
(PID.TID 0000.0001) %MON dynstat_uvel_max             =   5.8931744927028E-02
(PID.TID 0000.0001) %MON dynstat_uvel_min             =  -1.7429792157425E-02
(PID.TID 0000.0001) %MON dynstat_uvel_mean            =  -7.4533370464398E-09
(PID.TID 0000.0001) %MON dynstat_uvel_sd              =   1.5718509357564E-02
(PID.TID 0000.0001) %MON dynstat_uvel_del2            =   2.5990352576405E-05
(PID.TID 0000.0001) %MON dynstat_vvel_max             =   5.7802943665025E-02
(PID.TID 0000.0001) %MON dynstat_vvel_min             =  -2.7305776632010E-02
(PID.TID 0000.0001) %MON dynstat_vvel_mean            =   1.9747413137257E-07
(PID.TID 0000.0001) %MON dynstat_vvel_sd              =   1.3963228384332E-02
(PID.TID 0000.0001) %MON dynstat_vvel_del2            =   3.4386512405911E-05
(PID.TID 0000.0001) %MON dynstat_wvel_max             =   2.6873309147195E-08
(PID.TID 0000.0001) %MON dynstat_wvel_min             =  -1.7152480555815E-08
(PID.TID 0000.0001) %MON dynstat_wvel_mean            =  -1.5122961687868E-21
(PID.TID 0000.0001) %MON dynstat_wvel_sd              =   1.0128259275861E-08
(PID.TID 0000.0001) %MON dynstat_wvel_del2            =   4.8690990559764E-12
(PID.TID 0000.0001) %MON dynstat_theta_max            =   2.0000000000000E+01
(PID.TID 0000.0001) %MON dynstat_theta_min            =   2.0000000000000E+01
(PID.TID 0000.0001) %MON dynstat_theta_mean           =   2.0000000000000E+01
(PID.TID 0000.0001) %MON dynstat_theta_sd             =   3.8014036363165E-13
(PID.TID 0000.0001) %MON dynstat_theta_del2           =   0.0000000000000E+00
(PID.TID 0000.0001) %MON dynstat_salt_max             =   3.0000000000000E+01
(PID.TID 0000.0001) %MON dynstat_salt_min             =   3.0000000000000E+01
(PID.TID 0000.0001) %MON dynstat_salt_mean            =   2.9999999999999E+01
(PID.TID 0000.0001) %MON dynstat_salt_sd              =   5.5777604757167E-13
(PID.TID 0000.0001) %MON dynstat_salt_del2            =   0.0000000000000E+00
(PID.TID 0000.0001) %MON trAdv_CFL_u_max              =   3.5330271076436E-03
(PID.TID 0000.0001) %MON trAdv_CFL_v_max              =   3.4679106455996E-03
(PID.TID 0000.0001) %MON trAdv_CFL_w_max              =   7.0113600886182E-09
(PID.TID 0000.0001) %MON advcfl_uvel_max              =   3.5359046956217E-03
(PID.TID 0000.0001) %MON advcfl_vvel_max              =   3.4681766199015E-03
(PID.TID 0000.0001) %MON advcfl_wvel_max              =   1.2899188390654E-08
(PID.TID 0000.0001) %MON advcfl_W_hf_max              =   0.0000000000000E+00
(PID.TID 0000.0001) %MON pe_b_mean                    =   1.1559778658049E-06
(PID.TID 0000.0001) %MON ke_max                       =   1.7349280562552E-03
(PID.TID 0000.0001) %MON ke_mean                      =   2.1695735957954E-04
(PID.TID 0000.0001) %MON ke_vol                       =   6.8893493896486E+15
(PID.TID 0000.0001) %MON vort_r_min                   =  -5.1472984609168E-07
(PID.TID 0000.0001) %MON vort_r_max                   =   1.3625325388714E-06
(PID.TID 0000.0001) %MON vort_a_mean                  =   1.0600000000000E-04
(PID.TID 0000.0001) %MON vort_a_sd                    =   3.5267971008307E-06
(PID.TID 0000.0001) %MON vort_p_mean                  =   1.1652272308690E-04
(PID.TID 0000.0001) %MON vort_p_sd                    =   4.1725916954024E-05
(PID.TID 0000.0001) %MON surfExpan_theta_mean         =  -3.0194138547459E-20
(PID.TID 0000.0001) %MON surfExpan_salt_mean          =  -4.5279829268768E-20
(PID.TID 0000.0001) // =======================================================
(PID.TID 0000.0001) // End MONITOR dynamic field statistics
(PID.TID 0000.0001) // =======================================================
 cg2d: Sum(rhs),rhsMax =  -9.59787313081637E-04  8.80216258842964E-02
 cg2d: Sum(rhs),rhsMax =  -9.59937491579549E-04  8.80229571361736E-02
 cg2d: Sum(rhs),rhsMax =  -9.60087558826889E-04  8.80242686002947E-02
 cg2d: Sum(rhs),rhsMax =  -9.60237514160509E-04  8.80255603321724E-02
 cg2d: Sum(rhs),rhsMax =  -9.60387357406445E-04  8.80268323873575E-02
 cg2d: Sum(rhs),rhsMax =  -9.60537088205322E-04  8.80280848214358E-02
 cg2d: Sum(rhs),rhsMax =  -9.60686706247785E-04  8.80293176900240E-02
 cg2d: Sum(rhs),rhsMax =  -9.60836211498239E-04  8.80305310487751E-02
 cg2d: Sum(rhs),rhsMax =  -9.60985603521817E-04  8.80317249533759E-02
 cg2d: Sum(rhs),rhsMax =  -9.61134882032547E-04  8.80328994595488E-02
 cg2d: Sum(rhs),rhsMax =  -9.61284047048452E-04  8.80340546230440E-02
 cg2d: Sum(rhs),rhsMax =  -9.61433098216495E-04  8.80351904996522E-02
 cg2d: Sum(rhs),rhsMax =  -9.61582035204765E-04  8.80363071451932E-02
 cg2d: Sum(rhs),rhsMax =  -9.61730857956110E-04  8.80374046155206E-02
 cg2d: Sum(rhs),rhsMax =  -9.61879566117013E-04  8.80384829665213E-02
 cg2d: Sum(rhs),rhsMax =  -9.62028159449551E-04  8.80395422541159E-02
 cg2d: Sum(rhs),rhsMax =  -9.62176638168433E-04  8.80405825342564E-02
 cg2d: Sum(rhs),rhsMax =  -9.62325001978445E-04  8.80416038629272E-02
 cg2d: Sum(rhs),rhsMax =  -9.62473250388052E-04  8.80426062961463E-02
 cg2d: Sum(rhs),rhsMax =  -9.62621383729656E-04  8.80435898899632E-02
 cg2d: Sum(rhs),rhsMax =  -9.62769401574418E-04  8.80445547004590E-02
 cg2d: Sum(rhs),rhsMax =  -9.62917304209953E-04  8.80455007837485E-02
 cg2d: Sum(rhs),rhsMax =  -9.63065090779446E-04  8.80464281959748E-02
 cg2d: Sum(rhs),rhsMax =  -9.63212761907608E-04  8.80473369933159E-02
 cg2d: Sum(rhs),rhsMax =  -9.63360317309665E-04  8.80482272319800E-02
 cg2d: Sum(rhs),rhsMax =  -9.63507756762898E-04  8.80490989682067E-02
 cg2d: Sum(rhs),rhsMax =  -9.63655080085203E-04  8.80499522582651E-02
 cg2d: Sum(rhs),rhsMax =  -9.63802287699513E-04  8.80507871584580E-02
 cg2d: Sum(rhs),rhsMax =  -9.63949379243639E-04  8.80516037251171E-02
 cg2d: Sum(rhs),rhsMax =  -9.64096354879714E-04  8.80524020146048E-02
 cg2d: Sum(rhs),rhsMax =  -9.64243214644882E-04  8.80531820833151E-02
 cg2d: Sum(rhs),rhsMax =  -9.64389958409657E-04  8.80539439876704E-02
 cg2d: Sum(rhs),rhsMax =  -9.64536586394810E-04  8.80546877841256E-02
 cg2d: Sum(rhs),rhsMax =  -9.64683098361237E-04  8.80554135291643E-02
 cg2d: Sum(rhs),rhsMax =  -9.64829494541380E-04  8.80561212792989E-02
 cg2d: Sum(rhs),rhsMax =  -9.64975775049674E-04  8.80568110910730E-02
 cg2d: Sum(rhs),rhsMax =  -9.65121939632638E-04  8.80574830210598E-02
 cg2d: Sum(rhs),rhsMax =  -9.65267988869173E-04  8.80581371258613E-02
 cg2d: Sum(rhs),rhsMax =  -9.65413922534832E-04  8.80587734621084E-02
 cg2d: Sum(rhs),rhsMax =  -9.65559740882638E-04  8.80593920864601E-02
 cg2d: Sum(rhs),rhsMax =  -9.65705443842741E-04  8.80599930556077E-02
 cg2d: Sum(rhs),rhsMax =  -9.65851031756910E-04  8.80605764262661E-02
 cg2d: Sum(rhs),rhsMax =  -9.65996505082153E-04  8.80611422551848E-02
 cg2d: Sum(rhs),rhsMax =  -9.66141863484503E-04  8.80616905991363E-02
 cg2d: Sum(rhs),rhsMax =  -9.66287107436351E-04  8.80622215149243E-02
 cg2d: Sum(rhs),rhsMax =  -9.66432237358521E-04  8.80627350593789E-02
 cg2d: Sum(rhs),rhsMax =  -9.66577252767171E-04  8.80632312893603E-02
 cg2d: Sum(rhs),rhsMax =  -9.66722154614033E-04  8.80637102617562E-02
 cg2d: Sum(rhs),rhsMax =  -9.66866942922157E-04  8.80641720334788E-02
 cg2d: Sum(rhs),rhsMax =  -9.67011617823726E-04  8.80646166614677E-02
 cg2d: Sum(rhs),rhsMax =  -9.67156179654240E-04  8.80650442026960E-02
 cg2d: Sum(rhs),rhsMax =  -9.67300628844734E-04  8.80654547141586E-02
 cg2d: Sum(rhs),rhsMax =  -9.67444965456320E-04  8.80658482528779E-02
 cg2d: Sum(rhs),rhsMax =  -9.67589190296783E-04  8.80662248759045E-02
 cg2d: Sum(rhs),rhsMax =  -9.67733303409737E-04  8.80665846403118E-02
 cg2d: Sum(rhs),rhsMax =  -9.67877305131377E-04  8.80669276032088E-02
 cg2d: Sum(rhs),rhsMax =  -9.68021195880454E-04  8.80672538217186E-02
 cg2d: Sum(rhs),rhsMax =  -9.68164976021091E-04  8.80675633530029E-02
 cg2d: Sum(rhs),rhsMax =  -9.68308646087410E-04  8.80678562542362E-02
 cg2d: Sum(rhs),rhsMax =  -9.68452206688564E-04  8.80681325826305E-02
 cg2d: Sum(rhs),rhsMax =  -9.68595657765789E-04  8.80683923954175E-02
 cg2d: Sum(rhs),rhsMax =  -9.68739000159532E-04  8.80686357498542E-02
 cg2d: Sum(rhs),rhsMax =  -9.68882234322472E-04  8.80688627032270E-02
 cg2d: Sum(rhs),rhsMax =  -9.69025360631027E-04  8.80690733128446E-02
 cg2d: Sum(rhs),rhsMax =  -9.69168379446075E-04  8.80692676360385E-02
 cg2d: Sum(rhs),rhsMax =  -9.69311291410500E-04  8.80694457301700E-02
 cg2d: Sum(rhs),rhsMax =  -9.69454097398872E-04  8.80696076526223E-02
 cg2d: Sum(rhs),rhsMax =  -9.69596797642608E-04  8.80697534608044E-02
 cg2d: Sum(rhs),rhsMax =  -9.69739392712138E-04  8.80698832121471E-02
 cg2d: Sum(rhs),rhsMax =  -9.69881883352088E-04  8.80699969641088E-02
 cg2d: Sum(rhs),rhsMax =  -9.70024270349847E-04  8.80700947741686E-02
 cg2d: Sum(rhs),rhsMax =  -9.70166554158214E-04  8.80701766998353E-02
(PID.TID 0000.0001)      cg2d_init_res =   3.22539897887645E-03
(PID.TID 0000.0001)      cg2d_iters(min,last) =      -1      88
(PID.TID 0000.0001)      cg2d_last_res =   8.78454657468745E-08
(PID.TID 0000.0001) // =======================================================
(PID.TID 0000.0001) // Begin MONITOR dynamic field statistics
(PID.TID 0000.0001) // =======================================================
(PID.TID 0000.0001) %MON time_tsnumber                =                  2664
(PID.TID 0000.0001) %MON time_secondsf                =   3.1968000000000E+06
(PID.TID 0000.0001) %MON dynstat_eta_max              =   7.8506995044815E-02
(PID.TID 0000.0001) %MON dynstat_eta_min              =  -3.9703594777343E-02
(PID.TID 0000.0001) %MON dynstat_eta_mean             =   4.2705769192431E-07
(PID.TID 0000.0001) %MON dynstat_eta_sd               =   3.4259402934103E-02
(PID.TID 0000.0001) %MON dynstat_eta_del2             =   1.1878739888751E-05
(PID.TID 0000.0001) %MON dynstat_uvel_max             =   6.0316013085243E-02
(PID.TID 0000.0001) %MON dynstat_uvel_min             =  -1.8151110684377E-02
(PID.TID 0000.0001) %MON dynstat_uvel_mean            =  -1.6968981549790E-08
(PID.TID 0000.0001) %MON dynstat_uvel_sd              =   1.6041092327689E-02
(PID.TID 0000.0001) %MON dynstat_uvel_del2            =   2.6690707893513E-05
(PID.TID 0000.0001) %MON dynstat_vvel_max             =   5.8073950975943E-02
(PID.TID 0000.0001) %MON dynstat_vvel_min             =  -2.8344493131796E-02
(PID.TID 0000.0001) %MON dynstat_vvel_mean            =   1.9059439421011E-07
(PID.TID 0000.0001) %MON dynstat_vvel_sd              =   1.4225400387805E-02
(PID.TID 0000.0001) %MON dynstat_vvel_del2            =   3.4673159794828E-05
(PID.TID 0000.0001) %MON dynstat_wvel_max             =   2.6670643755933E-08
(PID.TID 0000.0001) %MON dynstat_wvel_min             =  -1.6883431855240E-08
(PID.TID 0000.0001) %MON dynstat_wvel_mean            =   3.1537380588513E-21
(PID.TID 0000.0001) %MON dynstat_wvel_sd              =   1.0106532818747E-08
(PID.TID 0000.0001) %MON dynstat_wvel_del2            =   4.8401809345561E-12
(PID.TID 0000.0001) %MON dynstat_theta_max            =   2.0000000000000E+01
(PID.TID 0000.0001) %MON dynstat_theta_min            =   2.0000000000000E+01
(PID.TID 0000.0001) %MON dynstat_theta_mean           =   2.0000000000000E+01
(PID.TID 0000.0001) %MON dynstat_theta_sd             =   3.8014036363165E-13
(PID.TID 0000.0001) %MON dynstat_theta_del2           =   0.0000000000000E+00
(PID.TID 0000.0001) %MON dynstat_salt_max             =   3.0000000000000E+01
(PID.TID 0000.0001) %MON dynstat_salt_min             =   3.0000000000000E+01
(PID.TID 0000.0001) %MON dynstat_salt_mean            =   2.9999999999999E+01
(PID.TID 0000.0001) %MON dynstat_salt_sd              =   5.5777604757167E-13
(PID.TID 0000.0001) %MON dynstat_salt_del2            =   0.0000000000000E+00
(PID.TID 0000.0001) %MON trAdv_CFL_u_max              =   3.6160928373789E-03
(PID.TID 0000.0001) %MON trAdv_CFL_v_max              =   3.4842486558964E-03
(PID.TID 0000.0001) %MON trAdv_CFL_w_max              =   6.9655985548571E-09
(PID.TID 0000.0001) %MON advcfl_uvel_max              =   3.6189607851146E-03
(PID.TID 0000.0001) %MON advcfl_vvel_max              =   3.4844370585566E-03
(PID.TID 0000.0001) %MON advcfl_wvel_max              =   1.2801909002848E-08
(PID.TID 0000.0001) %MON advcfl_W_hf_max              =   0.0000000000000E+00
(PID.TID 0000.0001) %MON pe_b_mean                    =   1.2033248164657E-06
(PID.TID 0000.0001) %MON ke_max                       =   1.8179981457057E-03
(PID.TID 0000.0001) %MON ke_mean                      =   2.2561290246093E-04
(PID.TID 0000.0001) %MON ke_vol                       =   6.8893493896486E+15
(PID.TID 0000.0001) %MON vort_r_min                   =  -5.2714903345966E-07
(PID.TID 0000.0001) %MON vort_r_max                   =   1.3569462654939E-06
(PID.TID 0000.0001) %MON vort_a_mean                  =   1.0600000000000E-04
(PID.TID 0000.0001) %MON vort_a_sd                    =   3.5271329589009E-06
(PID.TID 0000.0001) %MON vort_p_mean                  =   1.1652272308690E-04
(PID.TID 0000.0001) %MON vort_p_sd                    =   4.1728034951037E-05
(PID.TID 0000.0001) %MON surfExpan_theta_mean         =   6.3029403918335E-20
(PID.TID 0000.0001) %MON surfExpan_salt_mean          =   9.4554685069347E-20
(PID.TID 0000.0001) // =======================================================
(PID.TID 0000.0001) // End MONITOR dynamic field statistics
(PID.TID 0000.0001) // =======================================================
 cg2d: Sum(rhs),rhsMax =  -9.70308735122931E-04  8.80702427986359E-02
 cg2d: Sum(rhs),rhsMax =  -9.70450814245863E-04  8.80702931281200E-02
 cg2d: Sum(rhs),rhsMax =  -9.70592792134805E-04  8.80703277458625E-02
 cg2d: Sum(rhs),rhsMax =  -9.70734669645968E-04  8.80703467094718E-02
 cg2d: Sum(rhs),rhsMax =  -9.70876447308013E-04  8.80703500765591E-02
 cg2d: Sum(rhs),rhsMax =  -9.71018125732189E-04  8.80703379047747E-02
 cg2d: Sum(rhs),rhsMax =  -9.71159705956959E-04  8.80703102517867E-02
 cg2d: Sum(rhs),rhsMax =  -9.71301188571461E-04  8.80702671752856E-02
 cg2d: Sum(rhs),rhsMax =  -9.71442574589674E-04  8.80702087329834E-02
 cg2d: Sum(rhs),rhsMax =  -9.71583864455842E-04  8.80701349826138E-02
 cg2d: Sum(rhs),rhsMax =  -9.71725059334034E-04  8.80700459819386E-02
 cg2d: Sum(rhs),rhsMax =  -9.71866159840403E-04  8.80699417887359E-02
 cg2d: Sum(rhs),rhsMax =  -9.72007167051935E-04  8.80698224608044E-02
 cg2d: Sum(rhs),rhsMax =  -9.72148081411311E-04  8.80696880559727E-02
 cg2d: Sum(rhs),rhsMax =  -9.72288904573456E-04  8.80695386320790E-02
 cg2d: Sum(rhs),rhsMax =  -9.72429636829763E-04  8.80693742469930E-02
 cg2d: Sum(rhs),rhsMax =  -9.72570279332924E-04  8.80691949586031E-02
 cg2d: Sum(rhs),rhsMax =  -9.72710832455585E-04  8.80690008248165E-02
 cg2d: Sum(rhs),rhsMax =  -9.72851298244856E-04  8.80687919035596E-02
 cg2d: Sum(rhs),rhsMax =  -9.72991676814357E-04  8.80685682527874E-02
 cg2d: Sum(rhs),rhsMax =  -9.73131969298133E-04  8.80683299304651E-02
 cg2d: Sum(rhs),rhsMax =  -9.73272176857033E-04  8.80680769945877E-02
 cg2d: Sum(rhs),rhsMax =  -9.73412300779863E-04  8.80678095031663E-02
 cg2d: Sum(rhs),rhsMax =  -9.73552341637773E-04  8.80675275142297E-02
 cg2d: Sum(rhs),rhsMax =  -9.73692300872013E-04  8.80672310858312E-02
 cg2d: Sum(rhs),rhsMax =  -9.73832179232557E-04  8.80669202760378E-02
 cg2d: Sum(rhs),rhsMax =  -9.73971977808605E-04  8.80665951429456E-02
 cg2d: Sum(rhs),rhsMax =  -9.74111698075531E-04  8.80662557446611E-02
 cg2d: Sum(rhs),rhsMax =  -9.74251340963884E-04  8.80659021393145E-02
 cg2d: Sum(rhs),rhsMax =  -9.74390907676828E-04  8.80655343850548E-02
 cg2d: Sum(rhs),rhsMax =  -9.74530399243577E-04  8.80651525400491E-02
 cg2d: Sum(rhs),rhsMax =  -9.74669816894383E-04  8.80647566624836E-02
 cg2d: Sum(rhs),rhsMax =  -9.74809161693353E-04  8.80643468105624E-02
 cg2d: Sum(rhs),rhsMax =  -9.74948435201690E-04  8.80639230425108E-02
 cg2d: Sum(rhs),rhsMax =  -9.75087638271602E-04  8.80634854165696E-02
 cg2d: Sum(rhs),rhsMax =  -9.75226772228409E-04  8.80630339909964E-02
 cg2d: Sum(rhs),rhsMax =  -9.75365838738834E-04  8.80625688240738E-02
 cg2d: Sum(rhs),rhsMax =  -9.75504838551956E-04  8.80620899740955E-02
 cg2d: Sum(rhs),rhsMax =  -9.75643773350025E-04  8.80615974993712E-02
 cg2d: Sum(rhs),rhsMax =  -9.75782644095560E-04  8.80610914582384E-02
 cg2d: Sum(rhs),rhsMax =  -9.75921451934161E-04  8.80605719090389E-02
 cg2d: Sum(rhs),rhsMax =  -9.76060198632361E-04  8.80600389101447E-02
 cg2d: Sum(rhs),rhsMax =  -9.76198885566423E-04  8.80594925199334E-02
 cg2d: Sum(rhs),rhsMax =  -9.76337513688582E-04  8.80589327968044E-02
 cg2d: Sum(rhs),rhsMax =  -9.76476084651779E-04  8.80583597991808E-02
 cg2d: Sum(rhs),rhsMax =  -9.76614599926103E-04  8.80577735854879E-02
 cg2d: Sum(rhs),rhsMax =  -9.76753060871301E-04  8.80571742141776E-02
 cg2d: Sum(rhs),rhsMax =  -9.76891468677642E-04  8.80565617437149E-02
 cg2d: Sum(rhs),rhsMax =  -9.77029824778829E-04  8.80559362325821E-02
 cg2d: Sum(rhs),rhsMax =  -9.77168130820213E-04  8.80552977392766E-02
 cg2d: Sum(rhs),rhsMax =  -9.77306388059540E-04  8.80546463223110E-02
 cg2d: Sum(rhs),rhsMax =  -9.77444598171975E-04  8.80539820402155E-02
 cg2d: Sum(rhs),rhsMax =  -9.77582762412881E-04  8.80533049515317E-02
 cg2d: Sum(rhs),rhsMax =  -9.77720882470546E-04  8.80526151148228E-02
 cg2d: Sum(rhs),rhsMax =  -9.77858959625204E-04  8.80519125886606E-02
 cg2d: Sum(rhs),rhsMax =  -9.77996995651507E-04  8.80511974316358E-02
 cg2d: Sum(rhs),rhsMax =  -9.78134991912117E-04  8.80504697023554E-02
 cg2d: Sum(rhs),rhsMax =  -9.78272949784642E-04  8.80497294594341E-02
 cg2d: Sum(rhs),rhsMax =  -9.78410871092811E-04  8.80489767615082E-02
 cg2d: Sum(rhs),rhsMax =  -9.78548757284231E-04  8.80482116672252E-02
 cg2d: Sum(rhs),rhsMax =  -9.78686610012956E-04  8.80474342352471E-02
 cg2d: Sum(rhs),rhsMax =  -9.78824430486486E-04  8.80466445242500E-02
 cg2d: Sum(rhs),rhsMax =  -9.78962220702952E-04  8.80458425929240E-02
 cg2d: Sum(rhs),rhsMax =  -9.79099981844919E-04  8.80450284999739E-02
 cg2d: Sum(rhs),rhsMax =  -9.79227383881572E-04  8.80451312863159E-02
 cg2d: Sum(rhs),rhsMax =  -9.79342911450572E-04  8.80462870084064E-02
 cg2d: Sum(rhs),rhsMax =  -9.79458441028119E-04  8.80474279065407E-02
 cg2d: Sum(rhs),rhsMax =  -9.79573974045050E-04  8.80485540322147E-02
 cg2d: Sum(rhs),rhsMax =  -9.79689512469722E-04  8.80496654369370E-02
 cg2d: Sum(rhs),rhsMax =  -9.79805057961688E-04  8.80507621722397E-02
 cg2d: Sum(rhs),rhsMax =  -9.79920612123243E-04  8.80518442896710E-02
 cg2d: Sum(rhs),rhsMax =  -9.80036176788528E-04  8.80529118407953E-02
(PID.TID 0000.0001)      cg2d_init_res =   3.20539748437073E-03
(PID.TID 0000.0001)      cg2d_iters(min,last) =      -1      88
(PID.TID 0000.0001)      cg2d_last_res =   8.41513965119868E-08
(PID.TID 0000.0001) // =======================================================
(PID.TID 0000.0001) // Begin MONITOR dynamic field statistics
(PID.TID 0000.0001) // =======================================================
(PID.TID 0000.0001) %MON time_tsnumber                =                  2736
(PID.TID 0000.0001) %MON time_secondsf                =   3.2832000000000E+06
(PID.TID 0000.0001) %MON dynstat_eta_max              =   8.0225636750865E-02
(PID.TID 0000.0001) %MON dynstat_eta_min              =  -4.0465959527749E-02
(PID.TID 0000.0001) %MON dynstat_eta_mean             =   4.3131012287985E-07
(PID.TID 0000.0001) %MON dynstat_eta_sd               =   3.4944596633191E-02
(PID.TID 0000.0001) %MON dynstat_eta_del2             =   1.2169889493542E-05
(PID.TID 0000.0001) %MON dynstat_uvel_max             =   6.1640939196108E-02
(PID.TID 0000.0001) %MON dynstat_uvel_min             =  -1.8898371524992E-02
(PID.TID 0000.0001) %MON dynstat_uvel_mean            =  -2.5710185272615E-08
(PID.TID 0000.0001) %MON dynstat_uvel_sd              =   1.6356787414926E-02
(PID.TID 0000.0001) %MON dynstat_uvel_del2            =   2.7370289330455E-05
(PID.TID 0000.0001) %MON dynstat_vvel_max             =   5.8307711921585E-02
(PID.TID 0000.0001) %MON dynstat_vvel_min             =  -2.9387940136886E-02
(PID.TID 0000.0001) %MON dynstat_vvel_mean            =   1.8656251034274E-07
(PID.TID 0000.0001) %MON dynstat_vvel_sd              =   1.4491052225718E-02
(PID.TID 0000.0001) %MON dynstat_vvel_del2            =   3.4967287344851E-05
(PID.TID 0000.0001) %MON dynstat_wvel_max             =   2.6473250986892E-08
(PID.TID 0000.0001) %MON dynstat_wvel_min             =  -1.6496135380003E-08
(PID.TID 0000.0001) %MON dynstat_wvel_mean            =  -2.2296050398533E-21
(PID.TID 0000.0001) %MON dynstat_wvel_sd              =   1.0087102133959E-08
(PID.TID 0000.0001) %MON dynstat_wvel_del2            =   4.8137807992649E-12
(PID.TID 0000.0001) %MON dynstat_theta_max            =   2.0000000000000E+01
(PID.TID 0000.0001) %MON dynstat_theta_min            =   2.0000000000000E+01
(PID.TID 0000.0001) %MON dynstat_theta_mean           =   2.0000000000000E+01
(PID.TID 0000.0001) %MON dynstat_theta_sd             =   3.8014036363165E-13
(PID.TID 0000.0001) %MON dynstat_theta_del2           =   0.0000000000000E+00
(PID.TID 0000.0001) %MON dynstat_salt_max             =   3.0000000000000E+01
(PID.TID 0000.0001) %MON dynstat_salt_min             =   3.0000000000000E+01
(PID.TID 0000.0001) %MON dynstat_salt_mean            =   2.9999999999999E+01
(PID.TID 0000.0001) %MON dynstat_salt_sd              =   5.5777604757167E-13
(PID.TID 0000.0001) %MON dynstat_salt_del2            =   0.0000000000000E+00
(PID.TID 0000.0001) %MON trAdv_CFL_u_max              =   3.6955994273163E-03
(PID.TID 0000.0001) %MON trAdv_CFL_v_max              =   3.4982339461890E-03
(PID.TID 0000.0001) %MON trAdv_CFL_w_max              =   6.9250988935347E-09
(PID.TID 0000.0001) %MON advcfl_uvel_max              =   3.6984563517665E-03
(PID.TID 0000.0001) %MON advcfl_vvel_max              =   3.4984627152951E-03
(PID.TID 0000.0001) %MON advcfl_wvel_max              =   1.2707160473708E-08
(PID.TID 0000.0001) %MON advcfl_W_hf_max              =   0.0000000000000E+00
(PID.TID 0000.0001) %MON pe_b_mean                    =   1.2519395431981E-06
(PID.TID 0000.0001) %MON ke_max                       =   1.8993835251222E-03
(PID.TID 0000.0001) %MON ke_mean                      =   2.3437693988712E-04
(PID.TID 0000.0001) %MON ke_vol                       =   6.8893493896486E+15
(PID.TID 0000.0001) %MON vort_r_min                   =  -5.3852385178643E-07
(PID.TID 0000.0001) %MON vort_r_max                   =   1.3511150595295E-06
(PID.TID 0000.0001) %MON vort_a_mean                  =   1.0600000000000E-04
(PID.TID 0000.0001) %MON vort_a_sd                    =   3.5274737366094E-06
(PID.TID 0000.0001) %MON vort_p_mean                  =   1.1652272308690E-04
(PID.TID 0000.0001) %MON vort_p_sd                    =   4.1730077504691E-05
(PID.TID 0000.0001) %MON surfExpan_theta_mean         =  -4.4628676063338E-20
(PID.TID 0000.0001) %MON surfExpan_salt_mean          =  -6.6931329614464E-20
(PID.TID 0000.0001) // =======================================================
(PID.TID 0000.0001) // End MONITOR dynamic field statistics
(PID.TID 0000.0001) // =======================================================
 cg2d: Sum(rhs),rhsMax =  -9.80151753792926E-04  8.80539648772005E-02
 cg2d: Sum(rhs),rhsMax =  -9.80267344636687E-04  8.80550034504824E-02
 cg2d: Sum(rhs),rhsMax =  -9.80382951114377E-04  8.80560276122685E-02
 cg2d: Sum(rhs),rhsMax =  -9.80498575143308E-04  8.80570374141943E-02
 cg2d: Sum(rhs),rhsMax =  -9.80614218525844E-04  8.80580329079138E-02
 cg2d: Sum(rhs),rhsMax =  -9.80729882794434E-04  8.80590141451053E-02
 cg2d: Sum(rhs),rhsMax =  -9.80845569926413E-04  8.80599811774547E-02
 cg2d: Sum(rhs),rhsMax =  -9.80961281506161E-04  8.80609340566729E-02
 cg2d: Sum(rhs),rhsMax =  -9.81077019298181E-04  8.80618728344860E-02
 cg2d: Sum(rhs),rhsMax =  -9.81192785256279E-04  8.80627975626341E-02
 cg2d: Sum(rhs),rhsMax =  -9.81308580854209E-04  8.80637082928720E-02
 cg2d: Sum(rhs),rhsMax =  -9.81424408276668E-04  8.80646050769814E-02
 cg2d: Sum(rhs),rhsMax =  -9.81540269122162E-04  8.80654879667530E-02
 cg2d: Sum(rhs),rhsMax =  -9.81656165060598E-04  8.80663570139942E-02
 cg2d: Sum(rhs),rhsMax =  -9.81772097896402E-04  8.80672122705272E-02
 cg2d: Sum(rhs),rhsMax =  -9.81888069313389E-04  8.80680537881993E-02
 cg2d: Sum(rhs),rhsMax =  -9.82004081339392E-04  8.80688816188609E-02
 cg2d: Sum(rhs),rhsMax =  -9.82120135715345E-04  8.80696958143889E-02
 cg2d: Sum(rhs),rhsMax =  -9.82236234179767E-04  8.80704964266687E-02
 cg2d: Sum(rhs),rhsMax =  -9.82352378687490E-04  8.80712835076067E-02
 cg2d: Sum(rhs),rhsMax =  -9.82468570574442E-04  8.80720571091217E-02
 cg2d: Sum(rhs),rhsMax =  -9.82584811780492E-04  8.80728172831482E-02
 cg2d: Sum(rhs),rhsMax =  -9.82701104093476E-04  8.80735640816361E-02
 cg2d: Sum(rhs),rhsMax =  -9.82817449430885E-04  8.80742975565497E-02
 cg2d: Sum(rhs),rhsMax =  -9.82933849469014E-04  8.80750177598700E-02
 cg2d: Sum(rhs),rhsMax =  -9.83050305852502E-04  8.80757247435915E-02
 cg2d: Sum(rhs),rhsMax =  -9.83166820266671E-04  8.80764185597244E-02
 cg2d: Sum(rhs),rhsMax =  -9.83283394824962E-04  8.80770992602920E-02
 cg2d: Sum(rhs),rhsMax =  -9.83400030920033E-04  8.80777668973321E-02
 cg2d: Sum(rhs),rhsMax =  -9.83516730258670E-04  8.80784215228986E-02
 cg2d: Sum(rhs),rhsMax =  -9.83633495067110E-04  8.80790631890540E-02
 cg2d: Sum(rhs),rhsMax =  -9.83750326816437E-04  8.80796919478867E-02
 cg2d: Sum(rhs),rhsMax =  -9.83867227021904E-04  8.80803078514839E-02
 cg2d: Sum(rhs),rhsMax =  -9.83984197407684E-04  8.80809109519566E-02
 cg2d: Sum(rhs),rhsMax =  -9.84101239591348E-04  8.80815013014274E-02
 cg2d: Sum(rhs),rhsMax =  -9.84218355581906E-04  8.80820789520307E-02
 cg2d: Sum(rhs),rhsMax =  -9.84335547070544E-04  8.80826439559121E-02
 cg2d: Sum(rhs),rhsMax =  -9.84452815520991E-04  8.80831963652391E-02
 cg2d: Sum(rhs),rhsMax =  -9.84570162646144E-04  8.80837362321816E-02
 cg2d: Sum(rhs),rhsMax =  -9.84687590402652E-04  8.80842636089290E-02
 cg2d: Sum(rhs),rhsMax =  -9.84805099956351E-04  8.80847785476804E-02
 cg2d: Sum(rhs),rhsMax =  -9.84922693134035E-04  8.80852811006504E-02
 cg2d: Sum(rhs),rhsMax =  -9.85040371926454E-04  8.80857713200631E-02
 cg2d: Sum(rhs),rhsMax =  -9.85158137302156E-04  8.80862492581562E-02
 cg2d: Sum(rhs),rhsMax =  -9.85275991160883E-04  8.80867149671810E-02
 cg2d: Sum(rhs),rhsMax =  -9.85393935333371E-04  8.80871684993993E-02
 cg2d: Sum(rhs),rhsMax =  -9.85511971164442E-04  8.80876099070835E-02
 cg2d: Sum(rhs),rhsMax =  -9.85630100167438E-04  8.80880392425211E-02
 cg2d: Sum(rhs),rhsMax =  -9.85748323962109E-04  8.80884565580096E-02
 cg2d: Sum(rhs),rhsMax =  -9.85866644161618E-04  8.80888619058559E-02
 cg2d: Sum(rhs),rhsMax =  -9.85985062224966E-04  8.80892553383841E-02
 cg2d: Sum(rhs),rhsMax =  -9.86103580029898E-04  8.80896369079239E-02
 cg2d: Sum(rhs),rhsMax =  -9.86222198577736E-04  8.80900066668156E-02
 cg2d: Sum(rhs),rhsMax =  -9.86340919299878E-04  8.80903646674194E-02
 cg2d: Sum(rhs),rhsMax =  -9.86459743893563E-04  8.80907109620930E-02
 cg2d: Sum(rhs),rhsMax =  -9.86578674295354E-04  8.80910456032164E-02
 cg2d: Sum(rhs),rhsMax =  -9.86697711206810E-04  8.80913686431758E-02
 cg2d: Sum(rhs),rhsMax =  -9.86816856556775E-04  8.80916801343646E-02
 cg2d: Sum(rhs),rhsMax =  -9.86936111268346E-04  8.80919801291922E-02
 cg2d: Sum(rhs),rhsMax =  -9.87055477358202E-04  8.80922686800774E-02
 cg2d: Sum(rhs),rhsMax =  -9.87174955442906E-04  8.80925458394415E-02
 cg2d: Sum(rhs),rhsMax =  -9.87294547363623E-04  8.80928116597276E-02
 cg2d: Sum(rhs),rhsMax =  -9.87414254552205E-04  8.80930661933782E-02
 cg2d: Sum(rhs),rhsMax =  -9.87534078009056E-04  8.80933094928546E-02
 cg2d: Sum(rhs),rhsMax =  -9.87654019038643E-04  8.80935416106180E-02
 cg2d: Sum(rhs),rhsMax =  -9.87774079668342E-04  8.80937625991463E-02
 cg2d: Sum(rhs),rhsMax =  -9.87894259941832E-04  8.80939725109235E-02
 cg2d: Sum(rhs),rhsMax =  -9.88014562281047E-04  8.80941713984416E-02
 cg2d: Sum(rhs),rhsMax =  -9.88134987317126E-04  8.80943593142097E-02
 cg2d: Sum(rhs),rhsMax =  -9.88255536418133E-04  8.80945363107331E-02
 cg2d: Sum(rhs),rhsMax =  -9.88376210873821E-04  8.80947024405334E-02
 cg2d: Sum(rhs),rhsMax =  -9.88497011634167E-04  8.80948577561419E-02
(PID.TID 0000.0001)      cg2d_init_res =   3.18779902038160E-03
(PID.TID 0000.0001)      cg2d_iters(min,last) =      -1      88
(PID.TID 0000.0001)      cg2d_last_res =   8.30660579588302E-08
(PID.TID 0000.0001) // =======================================================
(PID.TID 0000.0001) // Begin MONITOR dynamic field statistics
(PID.TID 0000.0001) // =======================================================
(PID.TID 0000.0001) %MON time_tsnumber                =                  2808
(PID.TID 0000.0001) %MON time_secondsf                =   3.3696000000000E+06
(PID.TID 0000.0001) %MON dynstat_eta_max              =   8.1887189238656E-02
(PID.TID 0000.0001) %MON dynstat_eta_min              =  -4.1221658352972E-02
(PID.TID 0000.0001) %MON dynstat_eta_mean             =   4.3523836705200E-07
(PID.TID 0000.0001) %MON dynstat_eta_sd               =   3.5634582497313E-02
(PID.TID 0000.0001) %MON dynstat_eta_del2             =   1.2456892665576E-05
(PID.TID 0000.0001) %MON dynstat_uvel_max             =   6.2912863459302E-02
(PID.TID 0000.0001) %MON dynstat_uvel_min             =  -1.9667790863621E-02
(PID.TID 0000.0001) %MON dynstat_uvel_mean            =  -3.3332135197442E-08
(PID.TID 0000.0001) %MON dynstat_uvel_sd              =   1.6666101681661E-02
(PID.TID 0000.0001) %MON dynstat_uvel_del2            =   2.8028959407343E-05
(PID.TID 0000.0001) %MON dynstat_vvel_max             =   5.8542640714259E-02
(PID.TID 0000.0001) %MON dynstat_vvel_min             =  -3.0434299131318E-02
(PID.TID 0000.0001) %MON dynstat_vvel_mean            =   1.8507731338562E-07
(PID.TID 0000.0001) %MON dynstat_vvel_sd              =   1.4759738843592E-02
(PID.TID 0000.0001) %MON dynstat_vvel_del2            =   3.5275021605619E-05
(PID.TID 0000.0001) %MON dynstat_wvel_max             =   2.6291647813632E-08
(PID.TID 0000.0001) %MON dynstat_wvel_min             =  -1.5962024475448E-08
(PID.TID 0000.0001) %MON dynstat_wvel_mean            =   3.9987046168082E-22
(PID.TID 0000.0001) %MON dynstat_wvel_sd              =   1.0067683971741E-08
(PID.TID 0000.0001) %MON dynstat_wvel_del2            =   4.7905186362776E-12
(PID.TID 0000.0001) %MON dynstat_theta_max            =   2.0000000000000E+01
(PID.TID 0000.0001) %MON dynstat_theta_min            =   2.0000000000000E+01
(PID.TID 0000.0001) %MON dynstat_theta_mean           =   2.0000000000000E+01
(PID.TID 0000.0001) %MON dynstat_theta_sd             =   3.8014036363165E-13
(PID.TID 0000.0001) %MON dynstat_theta_del2           =   0.0000000000000E+00
(PID.TID 0000.0001) %MON dynstat_salt_max             =   3.0000000000000E+01
(PID.TID 0000.0001) %MON dynstat_salt_min             =   3.0000000000000E+01
(PID.TID 0000.0001) %MON dynstat_salt_mean            =   2.9999999999999E+01
(PID.TID 0000.0001) %MON dynstat_salt_sd              =   5.5777604757167E-13
(PID.TID 0000.0001) %MON dynstat_salt_del2            =   0.0000000000000E+00
(PID.TID 0000.0001) %MON trAdv_CFL_u_max              =   3.7720860731640E-03
(PID.TID 0000.0001) %MON trAdv_CFL_v_max              =   3.5123932023612E-03
(PID.TID 0000.0001) %MON trAdv_CFL_w_max              =   6.8849103155065E-09
(PID.TID 0000.0001) %MON advcfl_uvel_max              =   3.7747718075581E-03
(PID.TID 0000.0001) %MON advcfl_vvel_max              =   3.5125584428556E-03
(PID.TID 0000.0001) %MON advcfl_wvel_max              =   1.2619990950543E-08
(PID.TID 0000.0001) %MON advcfl_W_hf_max              =   0.0000000000000E+00
(PID.TID 0000.0001) %MON pe_b_mean                    =   1.3018670741837E-06
(PID.TID 0000.0001) %MON ke_max                       =   1.9788824204505E-03
(PID.TID 0000.0001) %MON ke_mean                      =   2.4324763771582E-04
(PID.TID 0000.0001) %MON ke_vol                       =   6.8893493896486E+15
(PID.TID 0000.0001) %MON vort_r_min                   =  -5.5407979469805E-07
(PID.TID 0000.0001) %MON vort_r_max                   =   1.3463749291685E-06
(PID.TID 0000.0001) %MON vort_a_mean                  =   1.0600000000000E-04
(PID.TID 0000.0001) %MON vort_a_sd                    =   3.5278197633976E-06
(PID.TID 0000.0001) %MON vort_p_mean                  =   1.1652272308690E-04
(PID.TID 0000.0001) %MON vort_p_sd                    =   4.1732047360939E-05
(PID.TID 0000.0001) %MON surfExpan_theta_mean         =   8.0115963246246E-21
(PID.TID 0000.0001) %MON surfExpan_salt_mean          =   1.2040768382349E-20
(PID.TID 0000.0001) // =======================================================
(PID.TID 0000.0001) // End MONITOR dynamic field statistics
(PID.TID 0000.0001) // =======================================================
 cg2d: Sum(rhs),rhsMax =  -9.88617939949463E-04  8.80950023100944E-02
 cg2d: Sum(rhs),rhsMax =  -9.88738997039215E-04  8.80951361549369E-02
 cg2d: Sum(rhs),rhsMax =  -9.88860184174267E-04  8.80952593432224E-02
 cg2d: Sum(rhs),rhsMax =  -9.88981502275884E-04  8.80953719275115E-02
 cg2d: Sum(rhs),rhsMax =  -9.89102952098076E-04  8.80954739603801E-02
 cg2d: Sum(rhs),rhsMax =  -9.89224535279384E-04  8.80955654944003E-02
 cg2d: Sum(rhs),rhsMax =  -9.89346252547259E-04  8.80956465821599E-02
 cg2d: Sum(rhs),rhsMax =  -9.89468105109394E-04  8.80957172762499E-02
 cg2d: Sum(rhs),rhsMax =  -9.89590093896646E-04  8.80957776292703E-02
 cg2d: Sum(rhs),rhsMax =  -9.89712219668953E-04  8.80958276938316E-02
 cg2d: Sum(rhs),rhsMax =  -9.89834483741889E-04  8.80958675225435E-02
 cg2d: Sum(rhs),rhsMax =  -9.89956887001625E-04  8.80958971680314E-02
 cg2d: Sum(rhs),rhsMax =  -9.90079430048554E-04  8.80959166829216E-02
 cg2d: Sum(rhs),rhsMax =  -9.90202114187533E-04  8.80959261198516E-02
 cg2d: Sum(rhs),rhsMax =  -9.90324940102899E-04  8.80959255314589E-02
 cg2d: Sum(rhs),rhsMax =  -9.90447908775133E-04  8.80959149703930E-02
 cg2d: Sum(rhs),rhsMax =  -9.90571020585283E-04  8.80958944893110E-02
 cg2d: Sum(rhs),rhsMax =  -9.90694276848881E-04  8.80958641408700E-02
 cg2d: Sum(rhs),rhsMax =  -9.90817678146971E-04  8.80958239777393E-02
 cg2d: Sum(rhs),rhsMax =  -9.90941225170457E-04  8.80957740525882E-02
 cg2d: Sum(rhs),rhsMax =  -9.91064919031396E-04  8.80957144180951E-02
 cg2d: Sum(rhs),rhsMax =  -9.91188760119117E-04  8.80956451269477E-02
 cg2d: Sum(rhs),rhsMax =  -9.91312749221030E-04  8.80955662318308E-02
 cg2d: Sum(rhs),rhsMax =  -9.91436887319255E-04  8.80954777854408E-02
 cg2d: Sum(rhs),rhsMax =  -9.91561174604107E-04  8.80953798404777E-02
 cg2d: Sum(rhs),rhsMax =  -9.91685612070154E-04  8.80952724496468E-02
 cg2d: Sum(rhs),rhsMax =  -9.91810200076666E-04  8.80951556656567E-02
 cg2d: Sum(rhs),rhsMax =  -9.91934939387748E-04  8.80950295412224E-02
 cg2d: Sum(rhs),rhsMax =  -9.92059830467882E-04  8.80948941290632E-02
 cg2d: Sum(rhs),rhsMax =  -9.92184873895116E-04  8.80947494819068E-02
 cg2d: Sum(rhs),rhsMax =  -9.92310070077572E-04  8.80945956524761E-02
 cg2d: Sum(rhs),rhsMax =  -9.92435419783326E-04  8.80944326935048E-02
 cg2d: Sum(rhs),rhsMax =  -9.92560923602750E-04  8.80942606577312E-02
 cg2d: Sum(rhs),rhsMax =  -9.92686581560851E-04  8.80940795978982E-02
 cg2d: Sum(rhs),rhsMax =  -9.92812394468565E-04  8.80938895667453E-02
 cg2d: Sum(rhs),rhsMax =  -9.92938362649385E-04  8.80936906170264E-02
 cg2d: Sum(rhs),rhsMax =  -9.93064486477454E-04  8.80934828014901E-02
 cg2d: Sum(rhs),rhsMax =  -9.93190765992347E-04  8.80932661728922E-02
 cg2d: Sum(rhs),rhsMax =  -9.93317202218017E-04  8.80930407839918E-02
 cg2d: Sum(rhs),rhsMax =  -9.93443795315643E-04  8.80928066875522E-02
 cg2d: Sum(rhs),rhsMax =  -9.93570545221641E-04  8.80925639363397E-02
 cg2d: Sum(rhs),rhsMax =  -9.93697452556123E-04  8.80923125831197E-02
 cg2d: Sum(rhs),rhsMax =  -9.93824517681412E-04  8.80920526806647E-02
 cg2d: Sum(rhs),rhsMax =  -9.93951740373405E-04  8.80917842817464E-02
 cg2d: Sum(rhs),rhsMax =  -9.94079121296385E-04  8.80915074391435E-02
 cg2d: Sum(rhs),rhsMax =  -9.94206660586978E-04  8.80912222056339E-02
 cg2d: Sum(rhs),rhsMax =  -9.94334358349565E-04  8.80909286339974E-02
 cg2d: Sum(rhs),rhsMax =  -9.94462214921520E-04  8.80906267770177E-02
 cg2d: Sum(rhs),rhsMax =  -9.94590230196817E-04  8.80903166874821E-02
 cg2d: Sum(rhs),rhsMax =  -9.94718404559787E-04  8.80899984181741E-02
 cg2d: Sum(rhs),rhsMax =  -9.94846737750330E-04  8.80896720218865E-02
 cg2d: Sum(rhs),rhsMax =  -9.94975230434826E-04  8.80893375514030E-02
 cg2d: Sum(rhs),rhsMax =  -9.95103882027559E-04  8.80889950595220E-02
 cg2d: Sum(rhs),rhsMax =  -9.95232693258196E-04  8.80886445990352E-02
 cg2d: Sum(rhs),rhsMax =  -9.95287355333403E-04  8.80948628962016E-02
 cg2d: Sum(rhs),rhsMax =  -9.95205189013002E-04  8.81131994795984E-02
 cg2d: Sum(rhs),rhsMax =  -9.95123262599738E-04  8.81315240397603E-02
 cg2d: Sum(rhs),rhsMax =  -9.95041576345754E-04  8.81498365911216E-02
 cg2d: Sum(rhs),rhsMax =  -9.94960130313503E-04  8.81681371481396E-02
 cg2d: Sum(rhs),rhsMax =  -9.94878924369447E-04  8.81864257252809E-02
 cg2d: Sum(rhs),rhsMax =  -9.94797959225826E-04  8.82047023370328E-02
 cg2d: Sum(rhs),rhsMax =  -9.94717234731549E-04  8.82229669978958E-02
 cg2d: Sum(rhs),rhsMax =  -9.94636750758473E-04  8.82412197223885E-02
 cg2d: Sum(rhs),rhsMax =  -9.94556507473422E-04  8.82594605250445E-02
 cg2d: Sum(rhs),rhsMax =  -9.94476505314788E-04  8.82776894204177E-02
 cg2d: Sum(rhs),rhsMax =  -9.94396744032514E-04  8.82959064230692E-02
 cg2d: Sum(rhs),rhsMax =  -9.94317223722931E-04  8.83141115475836E-02
 cg2d: Sum(rhs),rhsMax =  -9.94237944196796E-04  8.83323048085587E-02
 cg2d: Sum(rhs),rhsMax =  -9.94158905571880E-04  8.83504862206080E-02
 cg2d: Sum(rhs),rhsMax =  -9.94080107826159E-04  8.83686557983607E-02
 cg2d: Sum(rhs),rhsMax =  -9.94001551292169E-04  8.83868135564640E-02
 cg2d: Sum(rhs),rhsMax =  -9.93923235173541E-04  8.84049595095797E-02
(PID.TID 0000.0001)      cg2d_init_res =   3.16429401564383E-03
(PID.TID 0000.0001)      cg2d_iters(min,last) =      -1      88
(PID.TID 0000.0001)      cg2d_last_res =   8.46807678064003E-08
(PID.TID 0000.0001) // =======================================================
(PID.TID 0000.0001) // Begin MONITOR dynamic field statistics
(PID.TID 0000.0001) // =======================================================
(PID.TID 0000.0001) %MON time_tsnumber                =                  2880
(PID.TID 0000.0001) %MON time_secondsf                =   3.4560000000000E+06
(PID.TID 0000.0001) %MON dynstat_eta_max              =   8.3508530804232E-02
(PID.TID 0000.0001) %MON dynstat_eta_min              =  -4.1968359626602E-02
(PID.TID 0000.0001) %MON dynstat_eta_mean             =   4.3916917159152E-07
(PID.TID 0000.0001) %MON dynstat_eta_sd               =   3.6329484829614E-02
(PID.TID 0000.0001) %MON dynstat_eta_del2             =   1.2739927566605E-05
(PID.TID 0000.0001) %MON dynstat_uvel_max             =   6.4143398377996E-02
(PID.TID 0000.0001) %MON dynstat_uvel_min             =  -2.0454991335643E-02
(PID.TID 0000.0001) %MON dynstat_uvel_mean            =  -3.9600960921706E-08
(PID.TID 0000.0001) %MON dynstat_uvel_sd              =   1.6969529906410E-02
(PID.TID 0000.0001) %MON dynstat_uvel_del2            =   2.8666872350328E-05
(PID.TID 0000.0001) %MON dynstat_vvel_max             =   5.8707226516153E-02
(PID.TID 0000.0001) %MON dynstat_vvel_min             =  -3.1481823596270E-02
(PID.TID 0000.0001) %MON dynstat_vvel_mean            =   1.8577420278740E-07
(PID.TID 0000.0001) %MON dynstat_vvel_sd              =   1.5030955997902E-02
(PID.TID 0000.0001) %MON dynstat_vvel_del2            =   3.5601536229173E-05
(PID.TID 0000.0001) %MON dynstat_wvel_max             =   2.6119791726815E-08
(PID.TID 0000.0001) %MON dynstat_wvel_min             =  -1.5456628083484E-08
(PID.TID 0000.0001) %MON dynstat_wvel_mean            =  -2.0805085417427E-21
(PID.TID 0000.0001) %MON dynstat_wvel_sd              =   1.0046726696020E-08
(PID.TID 0000.0001) %MON dynstat_wvel_del2            =   4.7706426546403E-12
(PID.TID 0000.0001) %MON dynstat_theta_max            =   2.0000000000000E+01
(PID.TID 0000.0001) %MON dynstat_theta_min            =   2.0000000000000E+01
(PID.TID 0000.0001) %MON dynstat_theta_mean           =   2.0000000000000E+01
(PID.TID 0000.0001) %MON dynstat_theta_sd             =   3.8014036363165E-13
(PID.TID 0000.0001) %MON dynstat_theta_del2           =   0.0000000000000E+00
(PID.TID 0000.0001) %MON dynstat_salt_max             =   3.0000000000000E+01
(PID.TID 0000.0001) %MON dynstat_salt_min             =   3.0000000000000E+01
(PID.TID 0000.0001) %MON dynstat_salt_mean            =   2.9999999999999E+01
(PID.TID 0000.0001) %MON dynstat_salt_sd              =   5.5777604757167E-13
(PID.TID 0000.0001) %MON dynstat_salt_del2            =   0.0000000000000E+00
(PID.TID 0000.0001) %MON trAdv_CFL_u_max              =   3.8459331664196E-03
(PID.TID 0000.0001) %MON trAdv_CFL_v_max              =   3.5223220984614E-03
(PID.TID 0000.0001) %MON trAdv_CFL_w_max              =   6.8492069461505E-09
(PID.TID 0000.0001) %MON advcfl_uvel_max              =   3.8486039026798E-03
(PID.TID 0000.0001) %MON advcfl_vvel_max              =   3.5224335909692E-03
(PID.TID 0000.0001) %MON advcfl_wvel_max              =   1.2537500028871E-08
(PID.TID 0000.0001) %MON advcfl_W_hf_max              =   0.0000000000000E+00
(PID.TID 0000.0001) %MON pe_b_mean                    =   1.3531370088505E-06
(PID.TID 0000.0001) %MON ke_max                       =   2.0563363506365E-03
(PID.TID 0000.0001) %MON ke_mean                      =   2.5222238665198E-04
(PID.TID 0000.0001) %MON ke_vol                       =   6.8893493896486E+15
(PID.TID 0000.0001) %MON vort_r_min                   =  -5.6861986260976E-07
(PID.TID 0000.0001) %MON vort_r_max                   =   1.3414341168043E-06
(PID.TID 0000.0001) %MON vort_a_mean                  =   1.0600000000000E-04
(PID.TID 0000.0001) %MON vort_a_sd                    =   3.5281712390569E-06
(PID.TID 0000.0001) %MON vort_p_mean                  =   1.1652272308690E-04
(PID.TID 0000.0001) %MON vort_p_sd                    =   4.1733946916293E-05
(PID.TID 0000.0001) %MON surfExpan_theta_mean         =  -4.1564539464566E-20
(PID.TID 0000.0001) %MON surfExpan_salt_mean          =  -6.2341756448505E-20
(PID.TID 0000.0001) // =======================================================
(PID.TID 0000.0001) // End MONITOR dynamic field statistics
(PID.TID 0000.0001) // =======================================================
 cg2d: Sum(rhs),rhsMax =  -9.93845159724782E-04  8.84230936723826E-02
 cg2d: Sum(rhs),rhsMax =  -9.93767324860517E-04  8.84412160595661E-02
 cg2d: Sum(rhs),rhsMax =  -9.93689730654848E-04  8.84593266858410E-02
 cg2d: Sum(rhs),rhsMax =  -9.93612376839547E-04  8.84774255659311E-02
 cg2d: Sum(rhs),rhsMax =  -9.93535262937745E-04  8.84955127145742E-02
 cg2d: Sum(rhs),rhsMax =  -9.93458389506988E-04  8.85135881465276E-02
 cg2d: Sum(rhs),rhsMax =  -9.93381755975905E-04  8.85316518765602E-02
 cg2d: Sum(rhs),rhsMax =  -9.93305362111768E-04  8.85497039194611E-02
 cg2d: Sum(rhs),rhsMax =  -9.93229207565751E-04  8.85677442900290E-02
 cg2d: Sum(rhs),rhsMax =  -9.93153292591736E-04  8.85857730030862E-02
 cg2d: Sum(rhs),rhsMax =  -9.93077616365946E-04  8.86037900734614E-02
 cg2d: Sum(rhs),rhsMax =  -9.93002179191762E-04  8.86217955160031E-02
 cg2d: Sum(rhs),rhsMax =  -9.92926980727719E-04  8.86397893455757E-02
 cg2d: Sum(rhs),rhsMax =  -9.92852020498553E-04  8.86577715770566E-02
 cg2d: Sum(rhs),rhsMax =  -9.92777298377955E-04  8.86757422253412E-02
 cg2d: Sum(rhs),rhsMax =  -9.92702813754635E-04  8.86937013053390E-02
 cg2d: Sum(rhs),rhsMax =  -9.92628566716676E-04  8.87116488319746E-02
 cg2d: Sum(rhs),rhsMax =  -9.92554556567223E-04  8.87295848201839E-02
 cg2d: Sum(rhs),rhsMax =  -9.92480783538051E-04  8.87475092849273E-02
 cg2d: Sum(rhs),rhsMax =  -9.92407246656998E-04  8.87654222411703E-02
 cg2d: Sum(rhs),rhsMax =  -9.92333945970439E-04  8.87833237038998E-02
 cg2d: Sum(rhs),rhsMax =  -9.92260880923908E-04  8.88012136881142E-02
 cg2d: Sum(rhs),rhsMax =  -9.92188051565129E-04  8.88190922088278E-02
 cg2d: Sum(rhs),rhsMax =  -9.92115456697609E-04  8.88369592810710E-02
 cg2d: Sum(rhs),rhsMax =  -9.92043096534188E-04  8.88548149198907E-02
 cg2d: Sum(rhs),rhsMax =  -9.91970970525044E-04  8.88726591403432E-02
 cg2d: Sum(rhs),rhsMax =  -9.91899077907157E-04  8.88904919575021E-02
 cg2d: Sum(rhs),rhsMax =  -9.91827418715736E-04  8.89083133864594E-02
 cg2d: Sum(rhs),rhsMax =  -9.91755992392214E-04  8.89261234423180E-02
 cg2d: Sum(rhs),rhsMax =  -9.91684798207836E-04  8.89439221401954E-02
 cg2d: Sum(rhs),rhsMax =  -9.91613836014805E-04  8.89617094952244E-02
 cg2d: Sum(rhs),rhsMax =  -9.91543105126676E-04  8.89794855225569E-02
 cg2d: Sum(rhs),rhsMax =  -9.91472605196674E-04  8.89972502373500E-02
 cg2d: Sum(rhs),rhsMax =  -9.91402335606278E-04  8.90150036547822E-02
 cg2d: Sum(rhs),rhsMax =  -9.91332296102227E-04  8.90327457900469E-02
 cg2d: Sum(rhs),rhsMax =  -9.91262485943438E-04  8.90504766583483E-02
 cg2d: Sum(rhs),rhsMax =  -9.91192904721192E-04  8.90681962749076E-02
 cg2d: Sum(rhs),rhsMax =  -9.91123552091203E-04  8.90859046549601E-02
 cg2d: Sum(rhs),rhsMax =  -9.91054426807053E-04  8.91036018137557E-02
 cg2d: Sum(rhs),rhsMax =  -9.90985528924068E-04  8.91212877665573E-02
 cg2d: Sum(rhs),rhsMax =  -9.90916857747926E-04  8.91389625286412E-02
 cg2d: Sum(rhs),rhsMax =  -9.90848412583439E-04  8.91566261153028E-02
 cg2d: Sum(rhs),rhsMax =  -9.90780193327056E-04  8.91742785418484E-02
 cg2d: Sum(rhs),rhsMax =  -9.90712198823882E-04  8.91919198235958E-02
 cg2d: Sum(rhs),rhsMax =  -9.90644428854728E-04  8.92095499758825E-02
 cg2d: Sum(rhs),rhsMax =  -9.90576882867654E-04  8.92271690140577E-02
 cg2d: Sum(rhs),rhsMax =  -9.90509560198333E-04  8.92447769534824E-02
 cg2d: Sum(rhs),rhsMax =  -9.90442459669481E-04  8.92623738095354E-02
 cg2d: Sum(rhs),rhsMax =  -9.90375581474044E-04  8.92799595976100E-02
 cg2d: Sum(rhs),rhsMax =  -9.90308924351931E-04  8.92975343331086E-02
 cg2d: Sum(rhs),rhsMax =  -9.90242488254505E-04  8.93150980314501E-02
 cg2d: Sum(rhs),rhsMax =  -9.90176272430001E-04  8.93326507080708E-02
 cg2d: Sum(rhs),rhsMax =  -9.90110276070075E-04  8.93501923784155E-02
 cg2d: Sum(rhs),rhsMax =  -9.90044498158472E-04  8.93677230579448E-02
 cg2d: Sum(rhs),rhsMax =  -9.89978938771587E-04  8.93852427621348E-02
 cg2d: Sum(rhs),rhsMax =  -9.89913597036662E-04  8.94027515064753E-02
 cg2d: Sum(rhs),rhsMax =  -9.89848472230638E-04  8.94202493064638E-02
 cg2d: Sum(rhs),rhsMax =  -9.89783563510867E-04  8.94377361776213E-02
 cg2d: Sum(rhs),rhsMax =  -9.89718870444141E-04  8.94552121354759E-02
 cg2d: Sum(rhs),rhsMax =  -9.89654392232048E-04  8.94726771955719E-02
 cg2d: Sum(rhs),rhsMax =  -9.89590128068912E-04  8.94901313734655E-02
 cg2d: Sum(rhs),rhsMax =  -9.89526077379864E-04  8.95075746847262E-02
 cg2d: Sum(rhs),rhsMax =  -9.89462239543097E-04  8.95250071449380E-02
 cg2d: Sum(rhs),rhsMax =  -9.89398614205179E-04  8.95424287696997E-02
 cg2d: Sum(rhs),rhsMax =  -9.89335200180311E-04  8.95598395746221E-02
 cg2d: Sum(rhs),rhsMax =  -9.89271996943392E-04  8.95772395753303E-02
 cg2d: Sum(rhs),rhsMax =  -9.89209003866516E-04  8.95946287874579E-02
 cg2d: Sum(rhs),rhsMax =  -9.89146220192267E-04  8.96120072266655E-02
 cg2d: Sum(rhs),rhsMax =  -9.89083645056295E-04  8.96293749086075E-02
 cg2d: Sum(rhs),rhsMax =  -9.89021277879986E-04  8.96467318489656E-02
 cg2d: Sum(rhs),rhsMax =  -9.88959118277382E-04  8.96640780634352E-02
 cg2d: Sum(rhs),rhsMax =  -9.88897164912003E-04  8.96814135677133E-02
(PID.TID 0000.0001)      cg2d_init_res =   3.10977278951706E-03
(PID.TID 0000.0001)      cg2d_iters(min,last) =      -1      88
(PID.TID 0000.0001)      cg2d_last_res =   8.63232429036505E-08
(PID.TID 0000.0001) // =======================================================
(PID.TID 0000.0001) // Begin MONITOR dynamic field statistics
(PID.TID 0000.0001) // =======================================================
(PID.TID 0000.0001) %MON time_tsnumber                =                  2952
(PID.TID 0000.0001) %MON time_secondsf                =   3.5424000000000E+06
(PID.TID 0000.0001) %MON dynstat_eta_max              =   8.5268136306655E-02
(PID.TID 0000.0001) %MON dynstat_eta_min              =  -4.2704031958906E-02
(PID.TID 0000.0001) %MON dynstat_eta_mean             =   4.4325920349758E-07
(PID.TID 0000.0001) %MON dynstat_eta_sd               =   3.7029216891174E-02
(PID.TID 0000.0001) %MON dynstat_eta_del2             =   1.3019163419238E-05
(PID.TID 0000.0001) %MON dynstat_uvel_max             =   6.5318234743580E-02
(PID.TID 0000.0001) %MON dynstat_uvel_min             =  -2.1255190454942E-02
(PID.TID 0000.0001) %MON dynstat_uvel_mean            =  -4.4395193841956E-08
(PID.TID 0000.0001) %MON dynstat_uvel_sd              =   1.7267542901440E-02
(PID.TID 0000.0001) %MON dynstat_uvel_del2            =   2.9284461531368E-05
(PID.TID 0000.0001) %MON dynstat_vvel_max             =   5.8813530091551E-02
(PID.TID 0000.0001) %MON dynstat_vvel_min             =  -3.2528846953112E-02
(PID.TID 0000.0001) %MON dynstat_vvel_mean            =   1.8824609143464E-07
(PID.TID 0000.0001) %MON dynstat_vvel_sd              =   1.5304170742513E-02
(PID.TID 0000.0001) %MON dynstat_vvel_del2            =   3.5950921805217E-05
(PID.TID 0000.0001) %MON dynstat_wvel_max             =   2.5965176980826E-08
(PID.TID 0000.0001) %MON dynstat_wvel_min             =  -1.4807145179366E-08
(PID.TID 0000.0001) %MON dynstat_wvel_mean            =   2.6933260717972E-21
(PID.TID 0000.0001) %MON dynstat_wvel_sd              =   1.0023358764253E-08
(PID.TID 0000.0001) %MON dynstat_wvel_del2            =   4.7540006042530E-12
(PID.TID 0000.0001) %MON dynstat_theta_max            =   2.0000000000000E+01
(PID.TID 0000.0001) %MON dynstat_theta_min            =   2.0000000000000E+01
(PID.TID 0000.0001) %MON dynstat_theta_mean           =   2.0000000000000E+01
(PID.TID 0000.0001) %MON dynstat_theta_sd             =   3.8014036363165E-13
(PID.TID 0000.0001) %MON dynstat_theta_del2           =   0.0000000000000E+00
(PID.TID 0000.0001) %MON dynstat_salt_max             =   3.0000000000000E+01
(PID.TID 0000.0001) %MON dynstat_salt_min             =   3.0000000000000E+01
(PID.TID 0000.0001) %MON dynstat_salt_mean            =   2.9999999999999E+01
(PID.TID 0000.0001) %MON dynstat_salt_sd              =   5.5777604757167E-13
(PID.TID 0000.0001) %MON dynstat_salt_del2            =   0.0000000000000E+00
(PID.TID 0000.0001) %MON trAdv_CFL_u_max              =   3.9164385203481E-03
(PID.TID 0000.0001) %MON trAdv_CFL_v_max              =   3.5287437736935E-03
(PID.TID 0000.0001) %MON trAdv_CFL_w_max              =   6.8159708927411E-09
(PID.TID 0000.0001) %MON advcfl_uvel_max              =   3.9190940846148E-03
(PID.TID 0000.0001) %MON advcfl_vvel_max              =   3.5288118054931E-03
(PID.TID 0000.0001) %MON advcfl_wvel_max              =   1.2463284950797E-08
(PID.TID 0000.0001) %MON advcfl_W_hf_max              =   0.0000000000000E+00
(PID.TID 0000.0001) %MON pe_b_mean                    =   1.4057637774128E-06
(PID.TID 0000.0001) %MON ke_max                       =   2.1316307976783E-03
(PID.TID 0000.0001) %MON ke_mean                      =   2.6129792207235E-04
(PID.TID 0000.0001) %MON ke_vol                       =   6.8893493896486E+15
(PID.TID 0000.0001) %MON vort_r_min                   =  -5.8194900353913E-07
(PID.TID 0000.0001) %MON vort_r_max                   =   1.3636817546257E-06
(PID.TID 0000.0001) %MON vort_a_mean                  =   1.0600000000000E-04
(PID.TID 0000.0001) %MON vort_a_sd                    =   3.5285282186354E-06
(PID.TID 0000.0001) %MON vort_p_mean                  =   1.1652272308690E-04
(PID.TID 0000.0001) %MON vort_p_sd                    =   4.1735778256787E-05
(PID.TID 0000.0001) %MON surfExpan_theta_mean         =   5.3768811625332E-20
(PID.TID 0000.0001) %MON surfExpan_salt_mean          =   8.0635853549893E-20
(PID.TID 0000.0001) // =======================================================
(PID.TID 0000.0001) // End MONITOR dynamic field statistics
(PID.TID 0000.0001) // =======================================================
 cg2d: Sum(rhs),rhsMax =  -9.88835417357812E-04  8.96987383775224E-02
 cg2d: Sum(rhs),rhsMax =  -9.88773874886290E-04  8.97160525085893E-02
 cg2d: Sum(rhs),rhsMax =  -9.88712536613250E-04  8.97333559766619E-02
 cg2d: Sum(rhs),rhsMax =  -9.88651402049647E-04  8.97506487974930E-02
 cg2d: Sum(rhs),rhsMax =  -9.88590470543459E-04  8.97679309868548E-02
 cg2d: Sum(rhs),rhsMax =  -9.88529741164451E-04  8.97852025605313E-02
 cg2d: Sum(rhs),rhsMax =  -9.88469213293975E-04  8.98024635343131E-02
 cg2d: Sum(rhs),rhsMax =  -9.88408885940754E-04  8.98197139240163E-02
 cg2d: Sum(rhs),rhsMax =  -9.88348758576296E-04  8.98369537454533E-02
 cg2d: Sum(rhs),rhsMax =  -9.88288830463858E-04  8.98541830144696E-02
 cg2d: Sum(rhs),rhsMax =  -9.88229101060195E-04  8.98714017469028E-02
 cg2d: Sum(rhs),rhsMax =  -9.88169569183364E-04  8.98886099586175E-02
 cg2d: Sum(rhs),rhsMax =  -9.88110234318156E-04  8.99058076654849E-02
 cg2d: Sum(rhs),rhsMax =  -9.88051095601582E-04  8.99229948833902E-02
 cg2d: Sum(rhs),rhsMax =  -9.87992152736393E-04  8.99401716282351E-02
 cg2d: Sum(rhs),rhsMax =  -9.87933404321725E-04  8.99573379159258E-02
 cg2d: Sum(rhs),rhsMax =  -9.87874849926247E-04  8.99744937623894E-02
 cg2d: Sum(rhs),rhsMax =  -9.87816488906019E-04  8.99916391835591E-02
 cg2d: Sum(rhs),rhsMax =  -9.87758320377251E-04  9.00087741953828E-02
 cg2d: Sum(rhs),rhsMax =  -9.87700343374840E-04  9.00258988138243E-02
 cg2d: Sum(rhs),rhsMax =  -9.87642557617033E-04  9.00430130548581E-02
 cg2d: Sum(rhs),rhsMax =  -9.87584961955057E-04  9.00601169344648E-02
 cg2d: Sum(rhs),rhsMax =  -9.87527555893875E-04  9.00772104686468E-02
 cg2d: Sum(rhs),rhsMax =  -9.87470338525209E-04  9.00942936734139E-02
 cg2d: Sum(rhs),rhsMax =  -9.87413309107843E-04  9.01113665647878E-02
 cg2d: Sum(rhs),rhsMax =  -9.87356466902393E-04  9.01284291588037E-02
 cg2d: Sum(rhs),rhsMax =  -9.87299811291403E-04  9.01454814715122E-02
 cg2d: Sum(rhs),rhsMax =  -9.87243341479368E-04  9.01625235189707E-02
 cg2d: Sum(rhs),rhsMax =  -9.87187056333366E-04  9.01795553172485E-02
 cg2d: Sum(rhs),rhsMax =  -9.87130955513914E-04  9.01965768824335E-02
 cg2d: Sum(rhs),rhsMax =  -9.87075037936477E-04  9.02135882306210E-02
 cg2d: Sum(rhs),rhsMax =  -9.87019303345056E-04  9.02305893779170E-02
 cg2d: Sum(rhs),rhsMax =  -9.86963750501387E-04  9.02475803404429E-02
 cg2d: Sum(rhs),rhsMax =  -9.86908378715408E-04  9.02645611343323E-02
 cg2d: Sum(rhs),rhsMax =  -9.86853187618306E-04  9.02815317757277E-02
 cg2d: Sum(rhs),rhsMax =  -9.86798175950116E-04  9.02984922807848E-02
 cg2d: Sum(rhs),rhsMax =  -9.86743343596056E-04  9.03154426656709E-02
 cg2d: Sum(rhs),rhsMax =  -9.86688689070283E-04  9.03323829465678E-02
 cg2d: Sum(rhs),rhsMax =  -9.86634211867222E-04  9.03493131396670E-02
 cg2d: Sum(rhs),rhsMax =  -9.86579911425089E-04  9.03662332611696E-02
 cg2d: Sum(rhs),rhsMax =  -9.86525786918151E-04  9.03831433272935E-02
 cg2d: Sum(rhs),rhsMax =  -9.86471837530679E-04  9.04000433542650E-02
 cg2d: Sum(rhs),rhsMax =  -9.86418062446544E-04  9.04169333583192E-02
 cg2d: Sum(rhs),rhsMax =  -9.86364461166254E-04  9.04338133557081E-02
 cg2d: Sum(rhs),rhsMax =  -9.86311032738538E-04  9.04506833626959E-02
 cg2d: Sum(rhs),rhsMax =  -9.86257776386609E-04  9.04675433955544E-02
 cg2d: Sum(rhs),rhsMax =  -9.86204691366649E-04  9.04843934705649E-02
 cg2d: Sum(rhs),rhsMax =  -9.86151776915169E-04  9.05012336040277E-02
 cg2d: Sum(rhs),rhsMax =  -9.86099032655327E-04  9.05180638122487E-02
 cg2d: Sum(rhs),rhsMax =  -9.86046457549433E-04  9.05348841115498E-02
 cg2d: Sum(rhs),rhsMax =  -9.85994050771436E-04  9.05516945182564E-02
 cg2d: Sum(rhs),rhsMax =  -9.85941811801807E-04  9.05684950487144E-02
 cg2d: Sum(rhs),rhsMax =  -9.85889739523849E-04  9.05852857192786E-02
 cg2d: Sum(rhs),rhsMax =  -9.85837833649920E-04  9.06020665463064E-02
 cg2d: Sum(rhs),rhsMax =  -9.85786093161054E-04  9.06188375461800E-02
 cg2d: Sum(rhs),rhsMax =  -9.85734517521958E-04  9.06355987352843E-02
 cg2d: Sum(rhs),rhsMax =  -9.85683105638110E-04  9.06523501300149E-02
 cg2d: Sum(rhs),rhsMax =  -9.85631857273413E-04  9.06690917467845E-02
 cg2d: Sum(rhs),rhsMax =  -9.85580771284713E-04  9.06858236020135E-02
 cg2d: Sum(rhs),rhsMax =  -9.85529847000267E-04  9.07025457121299E-02
 cg2d: Sum(rhs),rhsMax =  -9.85479084302888E-04  9.07192580935789E-02
 cg2d: Sum(rhs),rhsMax =  -9.85428481526454E-04  9.07359607628116E-02
 cg2d: Sum(rhs),rhsMax =  -9.85378038543375E-04  9.07526537362942E-02
 cg2d: Sum(rhs),rhsMax =  -9.85327754543054E-04  9.07693370304989E-02
 cg2d: Sum(rhs),rhsMax =  -9.85277628380500E-04  9.07860106619171E-02
 cg2d: Sum(rhs),rhsMax =  -9.85227659981634E-04  9.08026746470424E-02
 cg2d: Sum(rhs),rhsMax =  -9.85177848144243E-04  9.08193290023819E-02
 cg2d: Sum(rhs),rhsMax =  -9.85128192467724E-04  9.08359737444547E-02
 cg2d: Sum(rhs),rhsMax =  -9.85078691866734E-04  9.08526088897901E-02
 cg2d: Sum(rhs),rhsMax =  -9.85029346046530E-04  9.08692344549299E-02
 cg2d: Sum(rhs),rhsMax =  -9.84980154285602E-04  9.08858504564208E-02
 cg2d: Sum(rhs),rhsMax =  -9.84931115344489E-04  9.09024569108285E-02
(PID.TID 0000.0001)      cg2d_init_res =   3.06028627693989E-03
(PID.TID 0000.0001)      cg2d_iters(min,last) =      -1      88
(PID.TID 0000.0001)      cg2d_last_res =   8.73579619163551E-08
(PID.TID 0000.0001) // =======================================================
(PID.TID 0000.0001) // Begin MONITOR dynamic field statistics
(PID.TID 0000.0001) // =======================================================
(PID.TID 0000.0001) %MON time_tsnumber                =                  3024
(PID.TID 0000.0001) %MON time_secondsf                =   3.6288000000000E+06
(PID.TID 0000.0001) %MON dynstat_eta_max              =   8.6985988850855E-02
(PID.TID 0000.0001) %MON dynstat_eta_min              =  -4.3426990099287E-02
(PID.TID 0000.0001) %MON dynstat_eta_mean             =   4.4749338771896E-07
(PID.TID 0000.0001) %MON dynstat_eta_sd               =   3.7733512009906E-02
(PID.TID 0000.0001) %MON dynstat_eta_del2             =   1.3294750505405E-05
(PID.TID 0000.0001) %MON dynstat_uvel_max             =   6.6439108870536E-02
(PID.TID 0000.0001) %MON dynstat_uvel_min             =  -2.2063410610772E-02
(PID.TID 0000.0001) %MON dynstat_uvel_mean            =  -4.7701614962111E-08
(PID.TID 0000.0001) %MON dynstat_uvel_sd              =   1.7560578870422E-02
(PID.TID 0000.0001) %MON dynstat_uvel_del2            =   2.9882418059598E-05
(PID.TID 0000.0001) %MON dynstat_vvel_max             =   5.8885690493153E-02
(PID.TID 0000.0001) %MON dynstat_vvel_min             =  -3.3573785273873E-02
(PID.TID 0000.0001) %MON dynstat_vvel_mean            =   1.9206433651435E-07
(PID.TID 0000.0001) %MON dynstat_vvel_sd              =   1.5578847797309E-02
(PID.TID 0000.0001) %MON dynstat_vvel_del2            =   3.6326090648569E-05
(PID.TID 0000.0001) %MON dynstat_wvel_max             =   2.5820659720339E-08
(PID.TID 0000.0001) %MON dynstat_wvel_min             =  -1.4091950219590E-08
(PID.TID 0000.0001) %MON dynstat_wvel_mean            =  -2.8375797632584E-21
(PID.TID 0000.0001) %MON dynstat_wvel_sd              =   9.9972553314202E-09
(PID.TID 0000.0001) %MON dynstat_wvel_del2            =   4.7400970078660E-12
(PID.TID 0000.0001) %MON dynstat_theta_max            =   2.0000000000000E+01
(PID.TID 0000.0001) %MON dynstat_theta_min            =   2.0000000000000E+01
(PID.TID 0000.0001) %MON dynstat_theta_mean           =   2.0000000000000E+01
(PID.TID 0000.0001) %MON dynstat_theta_sd             =   3.8014036363165E-13
(PID.TID 0000.0001) %MON dynstat_theta_del2           =   0.0000000000000E+00
(PID.TID 0000.0001) %MON dynstat_salt_max             =   3.0000000000000E+01
(PID.TID 0000.0001) %MON dynstat_salt_min             =   3.0000000000000E+01
(PID.TID 0000.0001) %MON dynstat_salt_mean            =   2.9999999999999E+01
(PID.TID 0000.0001) %MON dynstat_salt_sd              =   5.5777604757167E-13
(PID.TID 0000.0001) %MON dynstat_salt_del2            =   0.0000000000000E+00
(PID.TID 0000.0001) %MON trAdv_CFL_u_max              =   3.9837059351160E-03
(PID.TID 0000.0001) %MON trAdv_CFL_v_max              =   3.5330184571100E-03
(PID.TID 0000.0001) %MON trAdv_CFL_w_max              =   6.7816947756015E-09
(PID.TID 0000.0001) %MON advcfl_uvel_max              =   3.9863465322322E-03
(PID.TID 0000.0001) %MON advcfl_vvel_max              =   3.5331414295892E-03
(PID.TID 0000.0001) %MON advcfl_wvel_max              =   1.2393916665763E-08
(PID.TID 0000.0001) %MON advcfl_W_hf_max              =   0.0000000000000E+00
(PID.TID 0000.0001) %MON pe_b_mean                    =   1.4597475357868E-06
(PID.TID 0000.0001) %MON ke_max                       =   2.2049512054881E-03
(PID.TID 0000.0001) %MON ke_mean                      =   2.7047046645188E-04
(PID.TID 0000.0001) %MON ke_vol                       =   6.8893493896486E+15
(PID.TID 0000.0001) %MON vort_r_min                   =  -5.9653576764622E-07
(PID.TID 0000.0001) %MON vort_r_max                   =   1.3897290896752E-06
(PID.TID 0000.0001) %MON vort_a_mean                  =   1.0600000000000E-04
(PID.TID 0000.0001) %MON vort_a_sd                    =   3.5288906021664E-06
(PID.TID 0000.0001) %MON vort_p_mean                  =   1.1652272308690E-04
(PID.TID 0000.0001) %MON vort_p_sd                    =   4.1737543203633E-05
(PID.TID 0000.0001) %MON surfExpan_theta_mean         =  -5.6693109466247E-20
(PID.TID 0000.0001) %MON surfExpan_salt_mean          =  -8.5047869981104E-20
(PID.TID 0000.0001) // =======================================================
(PID.TID 0000.0001) // End MONITOR dynamic field statistics
(PID.TID 0000.0001) // =======================================================
 cg2d: Sum(rhs),rhsMax =  -9.84882228707257E-04  9.09190538347212E-02
 cg2d: Sum(rhs),rhsMax =  -9.84833494121852E-04  9.09356412446839E-02
 cg2d: Sum(rhs),rhsMax =  -9.84784910700136E-04  9.09522191573070E-02
 cg2d: Sum(rhs),rhsMax =  -9.84736477076302E-04  9.09687875891973E-02
 cg2d: Sum(rhs),rhsMax =  -9.84688193565869E-04  9.09853465569650E-02
 cg2d: Sum(rhs),rhsMax =  -9.84640058759700E-04  9.10018960772351E-02
 cg2d: Sum(rhs),rhsMax =  -9.84592072225746E-04  9.10184361666434E-02
 cg2d: Sum(rhs),rhsMax =  -9.84544233410871E-04  9.10349668418369E-02
 cg2d: Sum(rhs),rhsMax =  -9.84496541453623E-04  9.10514881194652E-02
 cg2d: Sum(rhs),rhsMax =  -9.84448995392927E-04  9.10680000161968E-02
 cg2d: Sum(rhs),rhsMax =  -9.84401595068615E-04  9.10845025487085E-02
 cg2d: Sum(rhs),rhsMax =  -9.84354339572752E-04  9.11009957336866E-02
 cg2d: Sum(rhs),rhsMax =  -9.84307227722966E-04  9.11174795878255E-02
 cg2d: Sum(rhs),rhsMax =  -9.84260259808099E-04  9.11339541278306E-02
 cg2d: Sum(rhs),rhsMax =  -9.84213434313617E-04  9.11504193704217E-02
 cg2d: Sum(rhs),rhsMax =  -9.84166750841384E-04  9.11668753323221E-02
 cg2d: Sum(rhs),rhsMax =  -9.84120208744214E-04  9.11833220302707E-02
 cg2d: Sum(rhs),rhsMax =  -9.84073807584803E-04  9.11997594810106E-02
 cg2d: Sum(rhs),rhsMax =  -9.84027546211866E-04  9.12161877012998E-02
 cg2d: Sum(rhs),rhsMax =  -9.83981424229435E-04  9.12326067079058E-02
 cg2d: Sum(rhs),rhsMax =  -9.83935440931970E-04  9.12490165176028E-02
 cg2d: Sum(rhs),rhsMax =  -9.83887826840831E-04  9.12655812179071E-02
 cg2d: Sum(rhs),rhsMax =  -9.83836400653526E-04  9.12825032540731E-02
 cg2d: Sum(rhs),rhsMax =  -9.83785110717499E-04  9.12994164044541E-02
 cg2d: Sum(rhs),rhsMax =  -9.83733957185255E-04  9.13163206858981E-02
 cg2d: Sum(rhs),rhsMax =  -9.83682938595087E-04  9.13332161152632E-02
 cg2d: Sum(rhs),rhsMax =  -9.83632054635197E-04  9.13501027094140E-02
 cg2d: Sum(rhs),rhsMax =  -9.83581304123696E-04  9.13669804852275E-02
 cg2d: Sum(rhs),rhsMax =  -9.83530687071819E-04  9.13838494595932E-02
 cg2d: Sum(rhs),rhsMax =  -9.83480202537957E-04  9.14007096494083E-02
 cg2d: Sum(rhs),rhsMax =  -9.83429849758306E-04  9.14175610715755E-02
 cg2d: Sum(rhs),rhsMax =  -9.83379628296564E-04  9.14344037430132E-02
 cg2d: Sum(rhs),rhsMax =  -9.83329536955849E-04  9.14512376806462E-02
 cg2d: Sum(rhs),rhsMax =  -9.83279575928930E-04  9.14680629014110E-02
 cg2d: Sum(rhs),rhsMax =  -9.83229744169013E-04  9.14848794222537E-02
 cg2d: Sum(rhs),rhsMax =  -9.83180040950445E-04  9.15016872601235E-02
 cg2d: Sum(rhs),rhsMax =  -9.83130465670810E-04  9.15184864319910E-02
 cg2d: Sum(rhs),rhsMax =  -9.83081017895696E-04  9.15352769548270E-02
 cg2d: Sum(rhs),rhsMax =  -9.83031696464139E-04  9.15520588456158E-02
 cg2d: Sum(rhs),rhsMax =  -9.82982501152092E-04  9.15688321213499E-02
 cg2d: Sum(rhs),rhsMax =  -9.82933431382258E-04  9.15855967990286E-02
 cg2d: Sum(rhs),rhsMax =  -9.82884486234171E-04  9.16023528956672E-02
 cg2d: Sum(rhs),rhsMax =  -9.82835665139986E-04  9.16191004282838E-02
 cg2d: Sum(rhs),rhsMax =  -9.82786967600895E-04  9.16358394139073E-02
 cg2d: Sum(rhs),rhsMax =  -9.82738393090855E-04  9.16525698695800E-02
 cg2d: Sum(rhs),rhsMax =  -9.82689940742520E-04  9.16692918123480E-02
 cg2d: Sum(rhs),rhsMax =  -9.82641609855787E-04  9.16860052592679E-02
 cg2d: Sum(rhs),rhsMax =  -9.82593400130467E-04  9.17027102274103E-02
 cg2d: Sum(rhs),rhsMax =  -9.82545310773485E-04  9.17194067338477E-02
 cg2d: Sum(rhs),rhsMax =  -9.82497340938745E-04  9.17360947956657E-02
 cg2d: Sum(rhs),rhsMax =  -9.82449490240674E-04  9.17527744299571E-02
 cg2d: Sum(rhs),rhsMax =  -9.82401758256028E-04  9.17694456538287E-02
 cg2d: Sum(rhs),rhsMax =  -9.82354144207553E-04  9.17861084843844E-02
 cg2d: Sum(rhs),rhsMax =  -9.82306647028662E-04  9.18027629387511E-02
 cg2d: Sum(rhs),rhsMax =  -9.82259266878942E-04  9.18194090340568E-02
 cg2d: Sum(rhs),rhsMax =  -9.82212002608920E-04  9.18360467874418E-02
 cg2d: Sum(rhs),rhsMax =  -9.82164853854876E-04  9.18526762160485E-02
 cg2d: Sum(rhs),rhsMax =  -9.82117820005134E-04  9.18692973370361E-02
 cg2d: Sum(rhs),rhsMax =  -9.82070900076230E-04  9.18859101675677E-02
 cg2d: Sum(rhs),rhsMax =  -9.82024093925813E-04  9.19025147248182E-02
 cg2d: Sum(rhs),rhsMax =  -9.81977400565586E-04  9.19191110259663E-02
 cg2d: Sum(rhs),rhsMax =  -9.81930819867461E-04  9.19356990882074E-02
 cg2d: Sum(rhs),rhsMax =  -9.81884350834551E-04  9.19522789287370E-02
 cg2d: Sum(rhs),rhsMax =  -9.81837992695626E-04  9.19688505647627E-02
 cg2d: Sum(rhs),rhsMax =  -9.81791745685735E-04  9.19854140135015E-02
 cg2d: Sum(rhs),rhsMax =  -9.81745608253162E-04  9.20019692921782E-02
 cg2d: Sum(rhs),rhsMax =  -9.81699580393239E-04  9.20185164180247E-02
 cg2d: Sum(rhs),rhsMax =  -9.81653661182098E-04  9.20350554082839E-02
 cg2d: Sum(rhs),rhsMax =  -9.81607850342330E-04  9.20515862802024E-02
 cg2d: Sum(rhs),rhsMax =  -9.81562147290616E-04  9.20681090510409E-02
 cg2d: Sum(rhs),rhsMax =  -9.81516550896684E-04  9.20846237380667E-02
 cg2d: Sum(rhs),rhsMax =  -9.81471060936160E-04  9.21011303585540E-02
(PID.TID 0000.0001)      cg2d_init_res =   3.01357681180038E-03
(PID.TID 0000.0001)      cg2d_iters(min,last) =      -1      88
(PID.TID 0000.0001)      cg2d_last_res =   8.72675577039011E-08
(PID.TID 0000.0001) // =======================================================
(PID.TID 0000.0001) // Begin MONITOR dynamic field statistics
(PID.TID 0000.0001) // =======================================================
(PID.TID 0000.0001) %MON time_tsnumber                =                  3096
(PID.TID 0000.0001) %MON time_secondsf                =   3.7152000000000E+06
(PID.TID 0000.0001) %MON dynstat_eta_max              =   8.8674166709965E-02
(PID.TID 0000.0001) %MON dynstat_eta_min              =  -4.4135920963890E-02
(PID.TID 0000.0001) %MON dynstat_eta_mean             =   4.5180140883522E-07
(PID.TID 0000.0001) %MON dynstat_eta_sd               =   3.8441957696535E-02
(PID.TID 0000.0001) %MON dynstat_eta_del2             =   1.3566810039058E-05
(PID.TID 0000.0001) %MON dynstat_uvel_max             =   6.7508142925475E-02
(PID.TID 0000.0001) %MON dynstat_uvel_min             =  -2.2874931751414E-02
(PID.TID 0000.0001) %MON dynstat_uvel_mean            =  -4.9606079140237E-08
(PID.TID 0000.0001) %MON dynstat_uvel_sd              =   1.7849037441382E-02
(PID.TID 0000.0001) %MON dynstat_uvel_del2            =   3.0461660666445E-05
(PID.TID 0000.0001) %MON dynstat_vvel_max             =   5.9012732761878E-02
(PID.TID 0000.0001) %MON dynstat_vvel_min             =  -3.4615135514773E-02
(PID.TID 0000.0001) %MON dynstat_vvel_mean            =   1.9679888322653E-07
(PID.TID 0000.0001) %MON dynstat_vvel_sd              =   1.5854471675460E-02
(PID.TID 0000.0001) %MON dynstat_vvel_del2            =   3.6728724792282E-05
(PID.TID 0000.0001) %MON dynstat_wvel_max             =   2.5674425442703E-08
(PID.TID 0000.0001) %MON dynstat_wvel_min             =  -1.3374702779111E-08
(PID.TID 0000.0001) %MON dynstat_wvel_mean            =  -1.0621205446013E-22
(PID.TID 0000.0001) %MON dynstat_wvel_sd              =   9.9684541139754E-09
(PID.TID 0000.0001) %MON dynstat_wvel_del2            =   4.7281870488807E-12
(PID.TID 0000.0001) %MON dynstat_theta_max            =   2.0000000000000E+01
(PID.TID 0000.0001) %MON dynstat_theta_min            =   2.0000000000000E+01
(PID.TID 0000.0001) %MON dynstat_theta_mean           =   2.0000000000000E+01
(PID.TID 0000.0001) %MON dynstat_theta_sd             =   3.8014036363165E-13
(PID.TID 0000.0001) %MON dynstat_theta_del2           =   0.0000000000000E+00
(PID.TID 0000.0001) %MON dynstat_salt_max             =   3.0000000000000E+01
(PID.TID 0000.0001) %MON dynstat_salt_min             =   3.0000000000000E+01
(PID.TID 0000.0001) %MON dynstat_salt_mean            =   2.9999999999999E+01
(PID.TID 0000.0001) %MON dynstat_salt_sd              =   5.5777604757167E-13
(PID.TID 0000.0001) %MON dynstat_salt_del2            =   0.0000000000000E+00
(PID.TID 0000.0001) %MON trAdv_CFL_u_max              =   4.0478623760431E-03
(PID.TID 0000.0001) %MON trAdv_CFL_v_max              =   3.5406731745258E-03
(PID.TID 0000.0001) %MON trAdv_CFL_w_max              =   6.7544804229537E-09
(PID.TID 0000.0001) %MON advcfl_uvel_max              =   4.0504885755285E-03
(PID.TID 0000.0001) %MON advcfl_vvel_max              =   3.5407639657127E-03
(PID.TID 0000.0001) %MON advcfl_wvel_max              =   1.2323724212497E-08
(PID.TID 0000.0001) %MON advcfl_W_hf_max              =   0.0000000000000E+00
(PID.TID 0000.0001) %MON pe_b_mean                    =   1.5150755387395E-06
(PID.TID 0000.0001) %MON ke_max                       =   2.2772394551309E-03
(PID.TID 0000.0001) %MON ke_mean                      =   2.7973588685098E-04
(PID.TID 0000.0001) %MON ke_vol                       =   6.8893493896486E+15
(PID.TID 0000.0001) %MON vort_r_min                   =  -6.1108535657622E-07
(PID.TID 0000.0001) %MON vort_r_max                   =   1.4146349802790E-06
(PID.TID 0000.0001) %MON vort_a_mean                  =   1.0600000000000E-04
(PID.TID 0000.0001) %MON vort_a_sd                    =   3.5292581308776E-06
(PID.TID 0000.0001) %MON vort_p_mean                  =   1.1652272308690E-04
(PID.TID 0000.0001) %MON vort_p_sd                    =   4.1739243364298E-05
(PID.TID 0000.0001) %MON surfExpan_theta_mean         =  -2.0956224410106E-21
(PID.TID 0000.0001) %MON surfExpan_salt_mean          =  -3.1503787233255E-21
(PID.TID 0000.0001) // =======================================================
(PID.TID 0000.0001) // End MONITOR dynamic field statistics
(PID.TID 0000.0001) // =======================================================
 cg2d: Sum(rhs),rhsMax =  -9.81425676823144E-04  9.21176289297801E-02
 cg2d: Sum(rhs),rhsMax =  -9.81380398216922E-04  9.21341194690400E-02
 cg2d: Sum(rhs),rhsMax =  -9.81335223983384E-04  9.21506019936348E-02
 cg2d: Sum(rhs),rhsMax =  -9.81290154002810E-04  9.21670765208673E-02
 cg2d: Sum(rhs),rhsMax =  -9.81245187452580E-04  9.21835430680557E-02
 cg2d: Sum(rhs),rhsMax =  -9.81200323736647E-04  9.22000016525202E-02
 cg2d: Sum(rhs),rhsMax =  -9.81155562290541E-04  9.22164522915951E-02
 cg2d: Sum(rhs),rhsMax =  -9.81110902912172E-04  9.22328950026166E-02
 cg2d: Sum(rhs),rhsMax =  -9.81066344560647E-04  9.22493298029348E-02
 cg2d: Sum(rhs),rhsMax =  -9.81021886746578E-04  9.22657567099016E-02
 cg2d: Sum(rhs),rhsMax =  -9.80977528989062E-04  9.22821757408788E-02
 cg2d: Sum(rhs),rhsMax =  -9.80933270562645E-04  9.22985869132394E-02
 cg2d: Sum(rhs),rhsMax =  -9.80889111018325E-04  9.23149902443591E-02
 cg2d: Sum(rhs),rhsMax =  -9.80845049431824E-04  9.23313857516267E-02
 cg2d: Sum(rhs),rhsMax =  -9.80801086169263E-04  9.23477734524330E-02
 cg2d: Sum(rhs),rhsMax =  -9.80757219541030E-04  9.23641533641786E-02
 cg2d: Sum(rhs),rhsMax =  -9.80713449454246E-04  9.23805255042756E-02
 cg2d: Sum(rhs),rhsMax =  -9.80669775564671E-04  9.23968898901381E-02
 cg2d: Sum(rhs),rhsMax =  -9.80626196917449E-04  9.24132465391884E-02
 cg2d: Sum(rhs),rhsMax =  -9.80582713014311E-04  9.24295954688602E-02
 cg2d: Sum(rhs),rhsMax =  -9.80539323438893E-04  9.24459366965917E-02
 cg2d: Sum(rhs),rhsMax =  -9.80496027273254E-04  9.24622702398291E-02
 cg2d: Sum(rhs),rhsMax =  -9.80452824533080E-04  9.24785961160249E-02
 cg2d: Sum(rhs),rhsMax =  -9.80409714456176E-04  9.24949143426395E-02
 cg2d: Sum(rhs),rhsMax =  -9.80366696071613E-04  9.25112249371422E-02
 cg2d: Sum(rhs),rhsMax =  -9.80323768803765E-04  9.25275279170104E-02
 cg2d: Sum(rhs),rhsMax =  -9.80280932522146E-04  9.25438232997213E-02
 cg2d: Sum(rhs),rhsMax =  -9.80238186719499E-04  9.25601111027698E-02
 cg2d: Sum(rhs),rhsMax =  -9.80195530397267E-04  9.25763913436515E-02
 cg2d: Sum(rhs),rhsMax =  -9.80152963434375E-04  9.25926640398685E-02
 cg2d: Sum(rhs),rhsMax =  -9.80110484521565E-04  9.26089292089332E-02
 cg2d: Sum(rhs),rhsMax =  -9.80068094014578E-04  9.26251868683650E-02
 cg2d: Sum(rhs),rhsMax =  -9.80025790657521E-04  9.26414370356854E-02
 cg2d: Sum(rhs),rhsMax =  -9.79983574172835E-04  9.26576797284326E-02
 cg2d: Sum(rhs),rhsMax =  -9.79941443946475E-04  9.26739149641395E-02
 cg2d: Sum(rhs),rhsMax =  -9.79899399436754E-04  9.26901427603570E-02
 cg2d: Sum(rhs),rhsMax =  -9.79857439983217E-04  9.27063631346321E-02
 cg2d: Sum(rhs),rhsMax =  -9.79815565085838E-04  9.27225761045295E-02
 cg2d: Sum(rhs),rhsMax =  -9.79773774363174E-04  9.27387816876136E-02
 cg2d: Sum(rhs),rhsMax =  -9.79732066648496E-04  9.27549799014585E-02
 cg2d: Sum(rhs),rhsMax =  -9.79690442004577E-04  9.27711707636429E-02
 cg2d: Sum(rhs),rhsMax =  -9.79648899607732E-04  9.27873542917529E-02
 cg2d: Sum(rhs),rhsMax =  -9.79607439016872E-04  9.28035305033826E-02
 cg2d: Sum(rhs),rhsMax =  -9.79566059359720E-04  9.28196994161316E-02
 cg2d: Sum(rhs),rhsMax =  -9.79524760676302E-04  9.28358610476067E-02
 cg2d: Sum(rhs),rhsMax =  -9.79483541558919E-04  9.28520154154176E-02
 cg2d: Sum(rhs),rhsMax =  -9.79442401860941E-04  9.28681625371857E-02
 cg2d: Sum(rhs),rhsMax =  -9.79401341194973E-04  9.28843024305391E-02
 cg2d: Sum(rhs),rhsMax =  -9.79360358440502E-04  9.29004351131069E-02
 cg2d: Sum(rhs),rhsMax =  -9.79319453579819E-04  9.29165606025273E-02
 cg2d: Sum(rhs),rhsMax =  -9.79278625697105E-04  9.29326789164461E-02
 cg2d: Sum(rhs),rhsMax =  -9.79237874611138E-04  9.29487900725135E-02
 cg2d: Sum(rhs),rhsMax =  -9.79197199115479E-04  9.29648940883868E-02
 cg2d: Sum(rhs),rhsMax =  -9.79156599172554E-04  9.29809909817313E-02
 cg2d: Sum(rhs),rhsMax =  -9.79116073627967E-04  9.29970807702156E-02
 cg2d: Sum(rhs),rhsMax =  -9.79075622442063E-04  9.30131634715145E-02
 cg2d: Sum(rhs),rhsMax =  -9.79035244726100E-04  9.30292391033103E-02
 cg2d: Sum(rhs),rhsMax =  -9.78994940099891E-04  9.30453076832920E-02
 cg2d: Sum(rhs),rhsMax =  -9.78954708054886E-04  9.30613692291536E-02
 cg2d: Sum(rhs),rhsMax =  -9.78914547765171E-04  9.30774237585925E-02
 cg2d: Sum(rhs),rhsMax =  -9.78874458722266E-04  9.30934712893193E-02
 cg2d: Sum(rhs),rhsMax =  -9.78834440464794E-04  9.31095118390434E-02
 cg2d: Sum(rhs),rhsMax =  -9.78794491968429E-04  9.31255454254792E-02
 cg2d: Sum(rhs),rhsMax =  -9.78754612945412E-04  9.31415720663551E-02
 cg2d: Sum(rhs),rhsMax =  -9.78714802883578E-04  9.31575917793984E-02
 cg2d: Sum(rhs),rhsMax =  -9.78675060869450E-04  9.31736045823459E-02
 cg2d: Sum(rhs),rhsMax =  -9.78635386740766E-04  9.31896104929357E-02
 cg2d: Sum(rhs),rhsMax =  -9.78595779739938E-04  9.32056095289168E-02
 cg2d: Sum(rhs),rhsMax =  -9.78556239153796E-04  9.32216017080403E-02
 cg2d: Sum(rhs),rhsMax =  -9.78516764329532E-04  9.32375870480656E-02
 cg2d: Sum(rhs),rhsMax =  -9.78477354698991E-04  9.32535655667519E-02
 cg2d: Sum(rhs),rhsMax =  -9.78438009766682E-04  9.32695372818733E-02
(PID.TID 0000.0001)      cg2d_init_res =   2.96905898851483E-03
(PID.TID 0000.0001)      cg2d_iters(min,last) =      -1      88
(PID.TID 0000.0001)      cg2d_last_res =   8.59464709357145E-08
(PID.TID 0000.0001) // =======================================================
(PID.TID 0000.0001) // Begin MONITOR dynamic field statistics
(PID.TID 0000.0001) // =======================================================
(PID.TID 0000.0001) %MON time_tsnumber                =                  3168
(PID.TID 0000.0001) %MON time_secondsf                =   3.8016000000000E+06
(PID.TID 0000.0001) %MON dynstat_eta_max              =   9.0450451592705E-02
(PID.TID 0000.0001) %MON dynstat_eta_min              =  -4.4829890802306E-02
(PID.TID 0000.0001) %MON dynstat_eta_mean             =   4.5611824798201E-07
(PID.TID 0000.0001) %MON dynstat_eta_sd               =   3.9154029993176E-02
(PID.TID 0000.0001) %MON dynstat_eta_del2             =   1.3835424961361E-05
(PID.TID 0000.0001) %MON dynstat_uvel_max             =   6.8527815509171E-02
(PID.TID 0000.0001) %MON dynstat_uvel_min             =  -2.3702872662559E-02
(PID.TID 0000.0001) %MON dynstat_uvel_mean            =  -5.0280070987297E-08
(PID.TID 0000.0001) %MON dynstat_uvel_sd              =   1.8133276142391E-02
(PID.TID 0000.0001) %MON dynstat_uvel_del2            =   3.1023298330894E-05
(PID.TID 0000.0001) %MON dynstat_vvel_max             =   5.9106950297381E-02
(PID.TID 0000.0001) %MON dynstat_vvel_min             =  -3.5651470207398E-02
(PID.TID 0000.0001) %MON dynstat_vvel_mean            =   2.0203678774311E-07
(PID.TID 0000.0001) %MON dynstat_vvel_sd              =   1.6130564432886E-02
(PID.TID 0000.0001) %MON dynstat_vvel_del2            =   3.7159272850221E-05
(PID.TID 0000.0001) %MON dynstat_wvel_max             =   2.5551363541163E-08
(PID.TID 0000.0001) %MON dynstat_wvel_min             =  -1.2520403461531E-08
(PID.TID 0000.0001) %MON dynstat_wvel_mean            =  -2.3877671790413E-22
(PID.TID 0000.0001) %MON dynstat_wvel_sd              =   9.9371549316502E-09
(PID.TID 0000.0001) %MON dynstat_wvel_del2            =   4.7173757032439E-12
(PID.TID 0000.0001) %MON dynstat_theta_max            =   2.0000000000000E+01
(PID.TID 0000.0001) %MON dynstat_theta_min            =   2.0000000000000E+01
(PID.TID 0000.0001) %MON dynstat_theta_mean           =   2.0000000000000E+01
(PID.TID 0000.0001) %MON dynstat_theta_sd             =   3.8014036363165E-13
(PID.TID 0000.0001) %MON dynstat_theta_del2           =   0.0000000000000E+00
(PID.TID 0000.0001) %MON dynstat_salt_max             =   3.0000000000000E+01
(PID.TID 0000.0001) %MON dynstat_salt_min             =   3.0000000000000E+01
(PID.TID 0000.0001) %MON dynstat_salt_mean            =   2.9999999999999E+01
(PID.TID 0000.0001) %MON dynstat_salt_sd              =   5.5777604757167E-13
(PID.TID 0000.0001) %MON dynstat_salt_del2            =   0.0000000000000E+00
(PID.TID 0000.0001) %MON trAdv_CFL_u_max              =   4.1090562101459E-03
(PID.TID 0000.0001) %MON trAdv_CFL_v_max              =   3.5463488687354E-03
(PID.TID 0000.0001) %MON trAdv_CFL_w_max              =   6.7221815597105E-09
(PID.TID 0000.0001) %MON advcfl_uvel_max              =   4.1116689305502E-03
(PID.TID 0000.0001) %MON advcfl_vvel_max              =   3.5464170178429E-03
(PID.TID 0000.0001) %MON advcfl_wvel_max              =   1.2264654499758E-08
(PID.TID 0000.0001) %MON advcfl_W_hf_max              =   0.0000000000000E+00
(PID.TID 0000.0001) %MON pe_b_mean                    =   1.5717238084011E-06
(PID.TID 0000.0001) %MON ke_max                       =   2.3473024083530E-03
(PID.TID 0000.0001) %MON ke_mean                      =   2.8908985946932E-04
(PID.TID 0000.0001) %MON ke_vol                       =   6.8893493896486E+15
(PID.TID 0000.0001) %MON vort_r_min                   =  -6.2453420127247E-07
(PID.TID 0000.0001) %MON vort_r_max                   =   1.4384557261435E-06
(PID.TID 0000.0001) %MON vort_a_mean                  =   1.0600000000000E-04
(PID.TID 0000.0001) %MON vort_a_sd                    =   3.5296303907160E-06
(PID.TID 0000.0001) %MON vort_p_mean                  =   1.1652272308690E-04
(PID.TID 0000.0001) %MON vort_p_sd                    =   4.1740880187284E-05
(PID.TID 0000.0001) %MON surfExpan_theta_mean         =  -4.8004316571198E-21
(PID.TID 0000.0001) %MON surfExpan_salt_mean          =  -7.2030184286278E-21
(PID.TID 0000.0001) // =======================================================
(PID.TID 0000.0001) // End MONITOR dynamic field statistics
(PID.TID 0000.0001) // =======================================================
 cg2d: Sum(rhs),rhsMax =  -9.78398728706247E-04  9.32855022112032E-02
 cg2d: Sum(rhs),rhsMax =  -9.78359510968838E-04  9.33014603725179E-02
 cg2d: Sum(rhs),rhsMax =  -9.78320356457656E-04  9.33174117836041E-02
 cg2d: Sum(rhs),rhsMax =  -9.78281263659127E-04  9.33333564622555E-02
 cg2d: Sum(rhs),rhsMax =  -9.78242232390548E-04  9.33492944262677E-02
 cg2d: Sum(rhs),rhsMax =  -9.78203262000182E-04  9.33652256934384E-02
 cg2d: Sum(rhs),rhsMax =  -9.78164352132091E-04  9.33811502815777E-02
 cg2d: Sum(rhs),rhsMax =  -9.78125501652938E-04  9.33970682084967E-02
 cg2d: Sum(rhs),rhsMax =  -9.78086709908670E-04  9.34129794920124E-02
 cg2d: Sum(rhs),rhsMax =  -9.78047976769446E-04  9.34288841499460E-02
 cg2d: Sum(rhs),rhsMax =  -9.78009301570985E-04  9.34447822001280E-02
 cg2d: Sum(rhs),rhsMax =  -9.77970683313460E-04  9.34606736603879E-02
 cg2d: Sum(rhs),rhsMax =  -9.77932121142243E-04  9.34765585485650E-02
 cg2d: Sum(rhs),rhsMax =  -9.77893614872279E-04  9.34924368824990E-02
 cg2d: Sum(rhs),rhsMax =  -9.77855163841825E-04  9.35083086800417E-02
 cg2d: Sum(rhs),rhsMax =  -9.77816767020065E-04  9.35241739590433E-02
 cg2d: Sum(rhs),rhsMax =  -9.77778423927388E-04  9.35400327373628E-02
 cg2d: Sum(rhs),rhsMax =  -9.77740133621844E-04  9.35558850328606E-02
 cg2d: Sum(rhs),rhsMax =  -9.77701895953698E-04  9.35717308634058E-02
 cg2d: Sum(rhs),rhsMax =  -9.77663709915269E-04  9.35875702468659E-02
 cg2d: Sum(rhs),rhsMax =  -9.77625575191370E-04  9.36034032011227E-02
 cg2d: Sum(rhs),rhsMax =  -9.77587490599167E-04  9.36192297440567E-02
 cg2d: Sum(rhs),rhsMax =  -9.77549455552229E-04  9.36350498935518E-02
 cg2d: Sum(rhs),rhsMax =  -9.77511469635324E-04  9.36508636674995E-02
 cg2d: Sum(rhs),rhsMax =  -9.77473531856777E-04  9.36666710837965E-02
 cg2d: Sum(rhs),rhsMax =  -9.77435641478248E-04  9.36824721603426E-02
 cg2d: Sum(rhs),rhsMax =  -9.77397797833807E-04  9.36982669150404E-02
 cg2d: Sum(rhs),rhsMax =  -9.77360000482905E-04  9.37140553657985E-02
 cg2d: Sum(rhs),rhsMax =  -9.77322248438346E-04  9.37298375305351E-02
 cg2d: Sum(rhs),rhsMax =  -9.77284541015779E-04  9.37456134271626E-02
 cg2d: Sum(rhs),rhsMax =  -9.77246877683365E-04  9.37613830736054E-02
 cg2d: Sum(rhs),rhsMax =  -9.77209257216307E-04  9.37771464877897E-02
 cg2d: Sum(rhs),rhsMax =  -9.77171679250859E-04  9.37929036876482E-02
 cg2d: Sum(rhs),rhsMax =  -9.77134142927997E-04  9.38086546911126E-02
 cg2d: Sum(rhs),rhsMax =  -9.77096647825516E-04  9.38243995161246E-02
 cg2d: Sum(rhs),rhsMax =  -9.77059192396143E-04  9.38401381806271E-02
 cg2d: Sum(rhs),rhsMax =  -9.77021776370397E-04  9.38558707025685E-02
 cg2d: Sum(rhs),rhsMax =  -9.76984398991024E-04  9.38715970998989E-02
 cg2d: Sum(rhs),rhsMax =  -9.76947059414562E-04  9.38873173905777E-02
 cg2d: Sum(rhs),rhsMax =  -9.76909756581709E-04  9.39030315925620E-02
 cg2d: Sum(rhs),rhsMax =  -9.76872490054757E-04  9.39187397238150E-02
 cg2d: Sum(rhs),rhsMax =  -9.76835258835150E-04  9.39344418023058E-02
 cg2d: Sum(rhs),rhsMax =  -9.76798062186240E-04  9.39501378460077E-02
 cg2d: Sum(rhs),rhsMax =  -9.76760899402795E-04  9.39658278728936E-02
 cg2d: Sum(rhs),rhsMax =  -9.76723769291192E-04  9.39815119009464E-02
 cg2d: Sum(rhs),rhsMax =  -9.76686671340560E-04  9.39971899481468E-02
 cg2d: Sum(rhs),rhsMax =  -9.76649604434617E-04  9.40128620324843E-02
 cg2d: Sum(rhs),rhsMax =  -9.76612568233171E-04  9.40285281719508E-02
 cg2d: Sum(rhs),rhsMax =  -9.76575561153117E-04  9.40441883845338E-02
 cg2d: Sum(rhs),rhsMax =  -9.76538582699232E-04  9.40598426882415E-02
 cg2d: Sum(rhs),rhsMax =  -9.76501631918394E-04  9.40754911010697E-02
 cg2d: Sum(rhs),rhsMax =  -9.76464708250885E-04  9.40911336410256E-02
 cg2d: Sum(rhs),rhsMax =  -9.76427810053967E-04  9.41067703261188E-02
 cg2d: Sum(rhs),rhsMax =  -9.76390937161030E-04  9.41224011743599E-02
 cg2d: Sum(rhs),rhsMax =  -9.76354088437350E-04  9.41380262037686E-02
 cg2d: Sum(rhs),rhsMax =  -9.76317262519517E-04  9.41536454323626E-02
 cg2d: Sum(rhs),rhsMax =  -9.76280458660026E-04  9.41692588781648E-02
 cg2d: Sum(rhs),rhsMax =  -9.76243676152285E-04  9.41848665592013E-02
 cg2d: Sum(rhs),rhsMax =  -9.76206913914555E-04  9.42004684935047E-02
 cg2d: Sum(rhs),rhsMax =  -9.76170171018455E-04  9.42160646991026E-02
 cg2d: Sum(rhs),rhsMax =  -9.76133446368477E-04  9.42316551940380E-02
 cg2d: Sum(rhs),rhsMax =  -9.76096739052315E-04  9.42472399963447E-02
 cg2d: Sum(rhs),rhsMax =  -9.76060047969386E-04  9.42628191240692E-02
 cg2d: Sum(rhs),rhsMax =  -9.76023372198730E-04  9.42783925952558E-02
 cg2d: Sum(rhs),rhsMax =  -9.75986710535635E-04  9.42939604279536E-02
 cg2d: Sum(rhs),rhsMax =  -9.75950061865613E-04  9.43095226402144E-02
 cg2d: Sum(rhs),rhsMax =  -9.75913425475820E-04  9.43250792500953E-02
 cg2d: Sum(rhs),rhsMax =  -9.75876799923149E-04  9.43406302756502E-02
 cg2d: Sum(rhs),rhsMax =  -9.75840184439736E-04  9.43561757349433E-02
 cg2d: Sum(rhs),rhsMax =  -9.75803577474055E-04  9.43717156460401E-02
 cg2d: Sum(rhs),rhsMax =  -9.75766978824216E-04  9.43872500270038E-02
 cg2d: Sum(rhs),rhsMax =  -9.75730386267824E-04  9.44027788959086E-02
(PID.TID 0000.0001)      cg2d_init_res =   2.92630889799212E-03
(PID.TID 0000.0001)      cg2d_iters(min,last) =      -1      88
(PID.TID 0000.0001)      cg2d_last_res =   8.29510311780085E-08
(PID.TID 0000.0001) // =======================================================
(PID.TID 0000.0001) // Begin MONITOR dynamic field statistics
(PID.TID 0000.0001) // =======================================================
(PID.TID 0000.0001) %MON time_tsnumber                =                  3240
(PID.TID 0000.0001) %MON time_secondsf                =   3.8880000000000E+06
(PID.TID 0000.0001) %MON dynstat_eta_max              =   9.2184841167888E-02
(PID.TID 0000.0001) %MON dynstat_eta_min              =  -4.5508335090633E-02
(PID.TID 0000.0001) %MON dynstat_eta_mean             =   4.6038073923232E-07
(PID.TID 0000.0001) %MON dynstat_eta_sd               =   3.9869125643343E-02
(PID.TID 0000.0001) %MON dynstat_eta_del2             =   1.4100632685700E-05
(PID.TID 0000.0001) %MON dynstat_uvel_max             =   6.9500931242989E-02
(PID.TID 0000.0001) %MON dynstat_uvel_min             =  -2.4525148857211E-02
(PID.TID 0000.0001) %MON dynstat_uvel_mean            =  -4.9963863620296E-08
(PID.TID 0000.0001) %MON dynstat_uvel_sd              =   1.8413609222604E-02
(PID.TID 0000.0001) %MON dynstat_uvel_del2            =   3.1568588162743E-05
(PID.TID 0000.0001) %MON dynstat_vvel_max             =   5.9179825435577E-02
(PID.TID 0000.0001) %MON dynstat_vvel_min             =  -3.6681429648715E-02
(PID.TID 0000.0001) %MON dynstat_vvel_mean            =   2.0739840177473E-07
(PID.TID 0000.0001) %MON dynstat_vvel_sd              =   1.6406698860451E-02
(PID.TID 0000.0001) %MON dynstat_vvel_del2            =   3.7616997730584E-05
(PID.TID 0000.0001) %MON dynstat_wvel_max             =   2.5406688278308E-08
(PID.TID 0000.0001) %MON dynstat_wvel_min             =  -1.2444805437990E-08
(PID.TID 0000.0001) %MON dynstat_wvel_mean            =  -1.2600821719388E-22
(PID.TID 0000.0001) %MON dynstat_wvel_sd              =   9.9035359492087E-09
(PID.TID 0000.0001) %MON dynstat_wvel_del2            =   4.7067214994925E-12
(PID.TID 0000.0001) %MON dynstat_theta_max            =   2.0000000000000E+01
(PID.TID 0000.0001) %MON dynstat_theta_min            =   2.0000000000000E+01
(PID.TID 0000.0001) %MON dynstat_theta_mean           =   2.0000000000000E+01
(PID.TID 0000.0001) %MON dynstat_theta_sd             =   3.8014036363165E-13
(PID.TID 0000.0001) %MON dynstat_theta_del2           =   0.0000000000000E+00
(PID.TID 0000.0001) %MON dynstat_salt_max             =   3.0000000000000E+01
(PID.TID 0000.0001) %MON dynstat_salt_min             =   3.0000000000000E+01
(PID.TID 0000.0001) %MON dynstat_salt_mean            =   2.9999999999999E+01
(PID.TID 0000.0001) %MON dynstat_salt_sd              =   5.5777604757167E-13
(PID.TID 0000.0001) %MON dynstat_salt_del2            =   0.0000000000000E+00
(PID.TID 0000.0001) %MON trAdv_CFL_u_max              =   4.1674553829281E-03
(PID.TID 0000.0001) %MON trAdv_CFL_v_max              =   3.5507344433482E-03
(PID.TID 0000.0001) %MON trAdv_CFL_w_max              =   6.6945236551398E-09
(PID.TID 0000.0001) %MON advcfl_uvel_max              =   4.1700558745793E-03
(PID.TID 0000.0001) %MON advcfl_vvel_max              =   3.5507895261346E-03
(PID.TID 0000.0001) %MON advcfl_wvel_max              =   1.2195210373588E-08
(PID.TID 0000.0001) %MON advcfl_W_hf_max              =   0.0000000000000E+00
(PID.TID 0000.0001) %MON pe_b_mean                    =   1.6296589133754E-06
(PID.TID 0000.0001) %MON ke_max                       =   2.4151730751004E-03
(PID.TID 0000.0001) %MON ke_mean                      =   2.9852803305952E-04
(PID.TID 0000.0001) %MON ke_vol                       =   6.8893493896486E+15
(PID.TID 0000.0001) %MON vort_r_min                   =  -6.3685322755367E-07
(PID.TID 0000.0001) %MON vort_r_max                   =   1.4612558379041E-06
(PID.TID 0000.0001) %MON vort_a_mean                  =   1.0600000000000E-04
(PID.TID 0000.0001) %MON vort_a_sd                    =   3.5300068241838E-06
(PID.TID 0000.0001) %MON vort_p_mean                  =   1.1652272308690E-04
(PID.TID 0000.0001) %MON vort_p_sd                    =   4.1742455018648E-05
(PID.TID 0000.0001) %MON surfExpan_theta_mean         =  -2.5844758432135E-21
(PID.TID 0000.0001) %MON surfExpan_salt_mean          =  -3.8899747620589E-21
(PID.TID 0000.0001) // =======================================================
(PID.TID 0000.0001) // End MONITOR dynamic field statistics
(PID.TID 0000.0001) // =======================================================
 cg2d: Sum(rhs),rhsMax =  -9.75693799352917E-04  9.44183022708224E-02
 cg2d: Sum(rhs),rhsMax =  -9.75657216529660E-04  9.44338201698208E-02
 cg2d: Sum(rhs),rhsMax =  -9.75620636849261E-04  9.44493326109861E-02
 cg2d: Sum(rhs),rhsMax =  -9.75584058975517E-04  9.44648396123971E-02
 cg2d: Sum(rhs),rhsMax =  -9.75547481745050E-04  9.44803411921354E-02
 cg2d: Sum(rhs),rhsMax =  -9.75510903745744E-04  9.44958373682895E-02
 cg2d: Sum(rhs),rhsMax =  -9.75474324160702E-04  9.45113281589454E-02
 cg2d: Sum(rhs),rhsMax =  -9.75437741321011E-04  9.45268135821973E-02
 cg2d: Sum(rhs),rhsMax =  -9.75401154277401E-04  9.45422936561369E-02
 cg2d: Sum(rhs),rhsMax =  -9.75364561558684E-04  9.45577683988618E-02
 cg2d: Sum(rhs),rhsMax =  -9.75327961787745E-04  9.45732378284696E-02
 cg2d: Sum(rhs),rhsMax =  -9.75291353815348E-04  9.45887019630609E-02
 cg2d: Sum(rhs),rhsMax =  -9.75254736393143E-04  9.46041608207423E-02
 cg2d: Sum(rhs),rhsMax =  -9.75218107629433E-04  9.46196144196178E-02
 cg2d: Sum(rhs),rhsMax =  -9.75181466788017E-04  9.46350627777925E-02
 cg2d: Sum(rhs),rhsMax =  -9.75144811981989E-04  9.46505059133797E-02
 cg2d: Sum(rhs),rhsMax =  -9.75108141983816E-04  9.46659438444918E-02
 cg2d: Sum(rhs),rhsMax =  -9.75071454593152E-04  9.46813765892432E-02
 cg2d: Sum(rhs),rhsMax =  -9.75034749929837E-04  9.46968041657526E-02
 cg2d: Sum(rhs),rhsMax =  -9.74998024917174E-04  9.47122265921347E-02
 cg2d: Sum(rhs),rhsMax =  -9.74961278934521E-04  9.47276438865156E-02
 cg2d: Sum(rhs),rhsMax =  -9.74924510284327E-04  9.47430560670136E-02
 cg2d: Sum(rhs),rhsMax =  -9.74887717169109E-04  9.47584631517588E-02
 cg2d: Sum(rhs),rhsMax =  -9.74850898104267E-04  9.47738651588732E-02
 cg2d: Sum(rhs),rhsMax =  -9.74814051681080E-04  9.47892621064875E-02
 cg2d: Sum(rhs),rhsMax =  -9.74777175952516E-04  9.48046540127334E-02
 cg2d: Sum(rhs),rhsMax =  -9.74740269318063E-04  9.48200408957447E-02
 cg2d: Sum(rhs),rhsMax =  -9.74703330083003E-04  9.48354227736536E-02
 cg2d: Sum(rhs),rhsMax =  -9.74666356541910E-04  9.48507996645967E-02
 cg2d: Sum(rhs),rhsMax =  -9.74629347140769E-04  9.48661715867134E-02
 cg2d: Sum(rhs),rhsMax =  -9.74592299973764E-04  9.48815385581412E-02
 cg2d: Sum(rhs),rhsMax =  -9.74555213021051E-04  9.48969005970244E-02
 cg2d: Sum(rhs),rhsMax =  -9.74518084665213E-04  9.49122577215051E-02
 cg2d: Sum(rhs),rhsMax =  -9.74480912804578E-04  9.49276099497246E-02
 cg2d: Sum(rhs),rhsMax =  -9.74443695960572E-04  9.49429572998313E-02
 cg2d: Sum(rhs),rhsMax =  -9.74406431660916E-04  9.49582997899750E-02
 cg2d: Sum(rhs),rhsMax =  -9.74369118455748E-04  9.49736374383014E-02
 cg2d: Sum(rhs),rhsMax =  -9.74331754349026E-04  9.49889702629645E-02
 cg2d: Sum(rhs),rhsMax =  -9.74294337146082E-04  9.50042982821133E-02
 cg2d: Sum(rhs),rhsMax =  -9.74256864667952E-04  9.50196215139005E-02
 cg2d: Sum(rhs),rhsMax =  -9.74219334634638E-04  9.50349399764839E-02
 cg2d: Sum(rhs),rhsMax =  -9.74181745495548E-04  9.50502536880172E-02
 cg2d: Sum(rhs),rhsMax =  -9.74144094614486E-04  9.50655626666569E-02
 cg2d: Sum(rhs),rhsMax =  -9.74106379955601E-04  9.50808669305653E-02
 cg2d: Sum(rhs),rhsMax =  -9.74068599237678E-04  9.50961664978989E-02
 cg2d: Sum(rhs),rhsMax =  -9.74030750404635E-04  9.51114613868187E-02
 cg2d: Sum(rhs),rhsMax =  -9.73992830514702E-04  9.51267516154836E-02
 cg2d: Sum(rhs),rhsMax =  -9.73954837708960E-04  9.51420372020622E-02
 cg2d: Sum(rhs),rhsMax =  -9.73916769635871E-04  9.51573181647147E-02
 cg2d: Sum(rhs),rhsMax =  -9.73878623677475E-04  9.51725945216081E-02
 cg2d: Sum(rhs),rhsMax =  -9.73840397244113E-04  9.51878662909071E-02
 cg2d: Sum(rhs),rhsMax =  -9.73802087807132E-04  9.52031334907786E-02
 cg2d: Sum(rhs),rhsMax =  -9.73763693281268E-04  9.52183961393878E-02
 cg2d: Sum(rhs),rhsMax =  -9.73725210118799E-04  9.52336542549061E-02
 cg2d: Sum(rhs),rhsMax =  -9.73686636422805E-04  9.52489078555029E-02
 cg2d: Sum(rhs),rhsMax =  -9.73647969502611E-04  9.52641569593467E-02
 cg2d: Sum(rhs),rhsMax =  -9.73609205937191E-04  9.52794015846096E-02
 cg2d: Sum(rhs),rhsMax =  -9.73570343233608E-04  9.52946417494631E-02
 cg2d: Sum(rhs),rhsMax =  -9.73531378490173E-04  9.53098774720766E-02
 cg2d: Sum(rhs),rhsMax =  -9.73492309041906E-04  9.53251087706252E-02
 cg2d: Sum(rhs),rhsMax =  -9.73453131733679E-04  9.53403356632838E-02
 cg2d: Sum(rhs),rhsMax =  -9.73480599021782E-04  9.53555579053589E-02
 cg2d: Sum(rhs),rhsMax =  -9.73507662834328E-04  9.53707760454405E-02
 cg2d: Sum(rhs),rhsMax =  -9.73534351401642E-04  9.53859898307971E-02
 cg2d: Sum(rhs),rhsMax =  -9.73560644907830E-04  9.54011992811964E-02
 cg2d: Sum(rhs),rhsMax =  -9.73586534964373E-04  9.54164044144002E-02
 cg2d: Sum(rhs),rhsMax =  -9.73612015112771E-04  9.54316052503734E-02
 cg2d: Sum(rhs),rhsMax =  -9.73637079193065E-04  9.54468018082565E-02
 cg2d: Sum(rhs),rhsMax =  -9.73661720428825E-04  9.54619941064822E-02
 cg2d: Sum(rhs),rhsMax =  -9.73685932837722E-04  9.54771821630325E-02
 cg2d: Sum(rhs),rhsMax =  -9.73709709174965E-04  9.54923659957005E-02
 cg2d: Sum(rhs),rhsMax =  -9.73733041990412E-04  9.55075456223420E-02
(PID.TID 0000.0001)      cg2d_init_res =   2.88482383815327E-03
(PID.TID 0000.0001)      cg2d_iters(min,last) =      -1      87
(PID.TID 0000.0001)      cg2d_last_res =   9.72703365875470E-08
(PID.TID 0000.0001) // =======================================================
(PID.TID 0000.0001) // Begin MONITOR dynamic field statistics
(PID.TID 0000.0001) // =======================================================
(PID.TID 0000.0001) %MON time_tsnumber                =                  3312
(PID.TID 0000.0001) %MON time_secondsf                =   3.9744000000000E+06
(PID.TID 0000.0001) %MON dynstat_eta_max              =   9.3882615241307E-02
(PID.TID 0000.0001) %MON dynstat_eta_min              =  -4.6171032957031E-02
(PID.TID 0000.0001) %MON dynstat_eta_mean             =   4.6484076991313E-07
(PID.TID 0000.0001) %MON dynstat_eta_sd               =   4.0586590270578E-02
(PID.TID 0000.0001) %MON dynstat_eta_del2             =   1.4362420658796E-05
(PID.TID 0000.0001) %MON dynstat_uvel_max             =   7.0436997050112E-02
(PID.TID 0000.0001) %MON dynstat_uvel_min             =  -2.5337332025584E-02
(PID.TID 0000.0001) %MON dynstat_uvel_mean            =  -4.8946994299161E-08
(PID.TID 0000.0001) %MON dynstat_uvel_sd              =   1.8690308815665E-02
(PID.TID 0000.0001) %MON dynstat_uvel_del2            =   3.2098891736234E-05
(PID.TID 0000.0001) %MON dynstat_vvel_max             =   5.9242805831747E-02
(PID.TID 0000.0001) %MON dynstat_vvel_min             =  -3.7703712663405E-02
(PID.TID 0000.0001) %MON dynstat_vvel_mean            =   2.1254994824125E-07
(PID.TID 0000.0001) %MON dynstat_vvel_sd              =   1.6682506926129E-02
(PID.TID 0000.0001) %MON dynstat_vvel_del2            =   3.8100072936478E-05
(PID.TID 0000.0001) %MON dynstat_wvel_max             =   2.5260669185664E-08
(PID.TID 0000.0001) %MON dynstat_wvel_min             =  -1.2813693783351E-08
(PID.TID 0000.0001) %MON dynstat_wvel_mean            =  -4.4014844509851E-22
(PID.TID 0000.0001) %MON dynstat_wvel_sd              =   9.8676142778361E-09
(PID.TID 0000.0001) %MON dynstat_wvel_del2            =   4.6953580569517E-12
(PID.TID 0000.0001) %MON dynstat_theta_max            =   2.0000000000000E+01
(PID.TID 0000.0001) %MON dynstat_theta_min            =   2.0000000000000E+01
(PID.TID 0000.0001) %MON dynstat_theta_mean           =   2.0000000000000E+01
(PID.TID 0000.0001) %MON dynstat_theta_sd             =   3.8014036363165E-13
(PID.TID 0000.0001) %MON dynstat_theta_del2           =   0.0000000000000E+00
(PID.TID 0000.0001) %MON dynstat_salt_max             =   3.0000000000000E+01
(PID.TID 0000.0001) %MON dynstat_salt_min             =   3.0000000000000E+01
(PID.TID 0000.0001) %MON dynstat_salt_mean            =   2.9999999999999E+01
(PID.TID 0000.0001) %MON dynstat_salt_sd              =   5.5777604757167E-13
(PID.TID 0000.0001) %MON dynstat_salt_del2            =   0.0000000000000E+00
(PID.TID 0000.0001) %MON trAdv_CFL_u_max              =   4.2238165790229E-03
(PID.TID 0000.0001) %MON trAdv_CFL_v_max              =   3.5545168495677E-03
(PID.TID 0000.0001) %MON trAdv_CFL_w_max              =   6.6650929780540E-09
(PID.TID 0000.0001) %MON advcfl_uvel_max              =   4.2262198230067E-03
(PID.TID 0000.0001) %MON advcfl_vvel_max              =   3.5545683499048E-03
(PID.TID 0000.0001) %MON advcfl_wvel_max              =   1.2125121209119E-08
(PID.TID 0000.0001) %MON advcfl_W_hf_max              =   0.0000000000000E+00
(PID.TID 0000.0001) %MON pe_b_mean                    =   1.6888396942575E-06
(PID.TID 0000.0001) %MON ke_max                       =   2.4809227721719E-03
(PID.TID 0000.0001) %MON ke_mean                      =   3.0804618311538E-04
(PID.TID 0000.0001) %MON ke_vol                       =   6.8893493896486E+15
(PID.TID 0000.0001) %MON vort_r_min                   =  -6.4973850734256E-07
(PID.TID 0000.0001) %MON vort_r_max                   =   1.4831071433721E-06
(PID.TID 0000.0001) %MON vort_a_mean                  =   1.0600000000000E-04
(PID.TID 0000.0001) %MON vort_a_sd                    =   3.5303867498167E-06
(PID.TID 0000.0001) %MON vort_p_mean                  =   1.1652272308690E-04
(PID.TID 0000.0001) %MON vort_p_sd                    =   4.1743969157924E-05
(PID.TID 0000.0001) %MON surfExpan_theta_mean         =  -8.6534631312437E-21
(PID.TID 0000.0001) %MON surfExpan_salt_mean          =  -1.2974826151751E-20
(PID.TID 0000.0001) // =======================================================
(PID.TID 0000.0001) // End MONITOR dynamic field statistics
(PID.TID 0000.0001) // =======================================================
 cg2d: Sum(rhs),rhsMax =  -9.73755923862243E-04  9.55227210610014E-02
 cg2d: Sum(rhs),rhsMax =  -9.73778347091638E-04  9.55378923299043E-02
 cg2d: Sum(rhs),rhsMax =  -9.73800304127748E-04  9.55530594473491E-02
 cg2d: Sum(rhs),rhsMax =  -9.73821787501078E-04  9.55682224316112E-02
 cg2d: Sum(rhs),rhsMax =  -9.73842789158550E-04  9.55833813009043E-02
 cg2d: Sum(rhs),rhsMax =  -9.73863301653478E-04  9.55985360733874E-02
 cg2d: Sum(rhs),rhsMax =  -9.73883316043089E-04  9.56136867671979E-02
 cg2d: Sum(rhs),rhsMax =  -9.73902824870466E-04  9.56288334004800E-02
 cg2d: Sum(rhs),rhsMax =  -9.74075955995388E-04  9.56439762555986E-02
 cg2d: Sum(rhs),rhsMax =  -9.74247324418587E-04  9.56591148429994E-02
 cg2d: Sum(rhs),rhsMax =  -9.74416898369187E-04  9.56742494093935E-02
 cg2d: Sum(rhs),rhsMax =  -9.74584633399479E-04  9.56893799825738E-02
 cg2d: Sum(rhs),rhsMax =  -9.74750498395242E-04  9.57045065805373E-02
 cg2d: Sum(rhs),rhsMax =  -9.74914473980609E-04  9.57196292255355E-02
 cg2d: Sum(rhs),rhsMax =  -9.75076547658629E-04  9.57347479386333E-02
 cg2d: Sum(rhs),rhsMax =  -9.75305225023135E-04  9.57498628253910E-02
 cg2d: Sum(rhs),rhsMax =  -9.75531242658492E-04  9.57649737426111E-02
 cg2d: Sum(rhs),rhsMax =  -9.75754543864466E-04  9.57800807722531E-02
 cg2d: Sum(rhs),rhsMax =  -9.75975098888821E-04  9.57951839388066E-02
 cg2d: Sum(rhs),rhsMax =  -9.76192876321124E-04  9.58102832598458E-02
 cg2d: Sum(rhs),rhsMax =  -9.76407853949660E-04  9.58253787553683E-02
 cg2d: Sum(rhs),rhsMax =  -9.76620014121962E-04  9.58404704452482E-02
 cg2d: Sum(rhs),rhsMax =  -9.76829341920098E-04  9.58555583483681E-02
 cg2d: Sum(rhs),rhsMax =  -9.77035820007265E-04  9.58706424827524E-02
 cg2d: Sum(rhs),rhsMax =  -9.77239429128262E-04  9.58857228660426E-02
 cg2d: Sum(rhs),rhsMax =  -9.77440149122020E-04  9.59007995159067E-02
 cg2d: Sum(rhs),rhsMax =  -9.77637958028802E-04  9.59158724502687E-02
 cg2d: Sum(rhs),rhsMax =  -9.77832835293173E-04  9.59309416873091E-02
 cg2d: Sum(rhs),rhsMax =  -9.78024760646807E-04  9.59460072453387E-02
 cg2d: Sum(rhs),rhsMax =  -9.78213713109466E-04  9.59610691426678E-02
 cg2d: Sum(rhs),rhsMax =  -9.78399674138871E-04  9.59761273975369E-02
 cg2d: Sum(rhs),rhsMax =  -9.78641975395534E-04  9.59911817303882E-02
 cg2d: Sum(rhs),rhsMax =  -9.78880424533184E-04  9.60062327563670E-02
 cg2d: Sum(rhs),rhsMax =  -9.79115004100375E-04  9.60212801984506E-02
 cg2d: Sum(rhs),rhsMax =  -9.79345669256049E-04  9.60363240683686E-02
 cg2d: Sum(rhs),rhsMax =  -9.79572391589374E-04  9.60513643838879E-02
 cg2d: Sum(rhs),rhsMax =  -9.79795151683983E-04  9.60664011649577E-02
 cg2d: Sum(rhs),rhsMax =  -9.80013936274129E-04  9.60814344310847E-02
 cg2d: Sum(rhs),rhsMax =  -9.80228733538872E-04  9.60964642009074E-02
 cg2d: Sum(rhs),rhsMax =  -9.80439529705075E-04  9.61114904923739E-02
 cg2d: Sum(rhs),rhsMax =  -9.80646308797174E-04  9.61265133231724E-02
 cg2d: Sum(rhs),rhsMax =  -9.80849052889053E-04  9.61415327110863E-02
 cg2d: Sum(rhs),rhsMax =  -9.81047745429738E-04  9.61565486741192E-02
 cg2d: Sum(rhs),rhsMax =  -9.81242369346609E-04  9.61715612304646E-02
 cg2d: Sum(rhs),rhsMax =  -9.81432909018608E-04  9.61865703983866E-02
 cg2d: Sum(rhs),rhsMax =  -9.81619350243795E-04  9.62015761961370E-02
 cg2d: Sum(rhs),rhsMax =  -9.81801678835586E-04  9.62165786418942E-02
 cg2d: Sum(rhs),rhsMax =  -9.81979880855060E-04  9.62315777537882E-02
 cg2d: Sum(rhs),rhsMax =  -9.82153942828527E-04  9.62465735499212E-02
 cg2d: Sum(rhs),rhsMax =  -9.82323851868111E-04  9.62615660483994E-02
 cg2d: Sum(rhs),rhsMax =  -9.82542058385598E-04  9.62765557108674E-02
 cg2d: Sum(rhs),rhsMax =  -9.82755263095460E-04  9.62915416803629E-02
 cg2d: Sum(rhs),rhsMax =  -9.82963419991083E-04  9.63065243942526E-02
 cg2d: Sum(rhs),rhsMax =  -9.83166502688759E-04  9.63215038817160E-02
 cg2d: Sum(rhs),rhsMax =  -9.83364493990224E-04  9.63364801598125E-02
 cg2d: Sum(rhs),rhsMax =  -9.83557388117430E-04  9.63514532481048E-02
 cg2d: Sum(rhs),rhsMax =  -9.83745186963477E-04  9.63664231660552E-02
 cg2d: Sum(rhs),rhsMax =  -9.83927894572155E-04  9.63813899322892E-02
 cg2d: Sum(rhs),rhsMax =  -9.84105512361593E-04  9.63963535647252E-02
 cg2d: Sum(rhs),rhsMax =  -9.84278040802207E-04  9.64113140810418E-02
 cg2d: Sum(rhs),rhsMax =  -9.84445478550932E-04  9.64262714990099E-02
 cg2d: Sum(rhs),rhsMax =  -9.84607824403884E-04  9.64412258366189E-02
 cg2d: Sum(rhs),rhsMax =  -9.84765079485202E-04  9.64561771120281E-02
 cg2d: Sum(rhs),rhsMax =  -9.84917246531190E-04  9.64711253434650E-02
 cg2d: Sum(rhs),rhsMax =  -9.85064329570785E-04  9.64860705491257E-02
 cg2d: Sum(rhs),rhsMax =  -9.85206333580600E-04  9.65010127471559E-02
 cg2d: Sum(rhs),rhsMax =  -9.85343265023451E-04  9.65159519556430E-02
 cg2d: Sum(rhs),rhsMax =  -9.85475130480699E-04  9.65308881926543E-02
 cg2d: Sum(rhs),rhsMax =  -9.85601938376577E-04  9.65458214762659E-02
 cg2d: Sum(rhs),rhsMax =  -9.85723697401075E-04  9.65607518245558E-02
 cg2d: Sum(rhs),rhsMax =  -9.85840417758257E-04  9.65756792556257E-02
 cg2d: Sum(rhs),rhsMax =  -9.85952110389078E-04  9.65906037875740E-02
(PID.TID 0000.0001)      cg2d_init_res =   2.84437542522580E-03
(PID.TID 0000.0001)      cg2d_iters(min,last) =      -1      81
(PID.TID 0000.0001)      cg2d_last_res =   9.98586310373505E-08
(PID.TID 0000.0001) // =======================================================
(PID.TID 0000.0001) // Begin MONITOR dynamic field statistics
(PID.TID 0000.0001) // =======================================================
(PID.TID 0000.0001) %MON time_tsnumber                =                  3384
(PID.TID 0000.0001) %MON time_secondsf                =   4.0608000000000E+06
(PID.TID 0000.0001) %MON dynstat_eta_max              =   9.5626972463599E-02
(PID.TID 0000.0001) %MON dynstat_eta_min              =  -4.6818063419563E-02
(PID.TID 0000.0001) %MON dynstat_eta_mean             =   4.7607166345232E-07
(PID.TID 0000.0001) %MON dynstat_eta_sd               =   4.1305741485656E-02
(PID.TID 0000.0001) %MON dynstat_eta_del2             =   1.4620725337482E-05
(PID.TID 0000.0001) %MON dynstat_uvel_max             =   7.1345571213842E-02
(PID.TID 0000.0001) %MON dynstat_uvel_min             =  -2.6135832813233E-02
(PID.TID 0000.0001) %MON dynstat_uvel_mean            =  -4.7548851911721E-08
(PID.TID 0000.0001) %MON dynstat_uvel_sd              =   1.8963608449623E-02
(PID.TID 0000.0001) %MON dynstat_uvel_del2            =   3.2615633278450E-05
(PID.TID 0000.0001) %MON dynstat_vvel_max             =   5.9307153704431E-02
(PID.TID 0000.0001) %MON dynstat_vvel_min             =  -3.8717067043385E-02
(PID.TID 0000.0001) %MON dynstat_vvel_mean            =   2.1721810315842E-07
(PID.TID 0000.0001) %MON dynstat_vvel_sd              =   1.6957683357493E-02
(PID.TID 0000.0001) %MON dynstat_vvel_del2            =   3.8605721191528E-05
(PID.TID 0000.0001) %MON dynstat_wvel_max             =   2.5127741571632E-08
(PID.TID 0000.0001) %MON dynstat_wvel_min             =  -1.3164581138531E-08
(PID.TID 0000.0001) %MON dynstat_wvel_mean            =   1.3096412456232E-20
(PID.TID 0000.0001) %MON dynstat_wvel_sd              =   9.8291663323253E-09
(PID.TID 0000.0001) %MON dynstat_wvel_del2            =   4.6827186806288E-12
(PID.TID 0000.0001) %MON dynstat_theta_max            =   2.0000000000000E+01
(PID.TID 0000.0001) %MON dynstat_theta_min            =   2.0000000000000E+01
(PID.TID 0000.0001) %MON dynstat_theta_mean           =   2.0000000000000E+01
(PID.TID 0000.0001) %MON dynstat_theta_sd             =   3.8014036363165E-13
(PID.TID 0000.0001) %MON dynstat_theta_del2           =   0.0000000000000E+00
(PID.TID 0000.0001) %MON dynstat_salt_max             =   3.0000000000000E+01
(PID.TID 0000.0001) %MON dynstat_salt_min             =   3.0000000000000E+01
(PID.TID 0000.0001) %MON dynstat_salt_mean            =   2.9999999999999E+01
(PID.TID 0000.0001) %MON dynstat_salt_sd              =   5.5777604757167E-13
(PID.TID 0000.0001) %MON dynstat_salt_del2            =   0.0000000000000E+00
(PID.TID 0000.0001) %MON trAdv_CFL_u_max              =   4.2783430303659E-03
(PID.TID 0000.0001) %MON trAdv_CFL_v_max              =   3.5583720351241E-03
(PID.TID 0000.0001) %MON trAdv_CFL_w_max              =   6.6434298497152E-09
(PID.TID 0000.0001) %MON advcfl_uvel_max              =   4.2807342728305E-03
(PID.TID 0000.0001) %MON advcfl_vvel_max              =   3.5584292222659E-03
(PID.TID 0000.0001) %MON advcfl_wvel_max              =   1.2061315954383E-08
(PID.TID 0000.0001) %MON advcfl_W_hf_max              =   0.0000000000000E+00
(PID.TID 0000.0001) %MON pe_b_mean                    =   1.7492188101162E-06
(PID.TID 0000.0001) %MON ke_max                       =   2.5446590667886E-03
(PID.TID 0000.0001) %MON ke_mean                      =   3.1764034937922E-04
(PID.TID 0000.0001) %MON ke_vol                       =   6.8893493896486E+15
(PID.TID 0000.0001) %MON vort_r_min                   =  -6.6434726264607E-07
(PID.TID 0000.0001) %MON vort_r_max                   =   1.5040878790688E-06
(PID.TID 0000.0001) %MON vort_a_mean                  =   1.0600000000000E-04
(PID.TID 0000.0001) %MON vort_a_sd                    =   3.5307693889725E-06
(PID.TID 0000.0001) %MON vort_p_mean                  =   1.1652272308690E-04
(PID.TID 0000.0001) %MON vort_p_sd                    =   4.1745423911201E-05
(PID.TID 0000.0001) %MON surfExpan_theta_mean         =   2.6207595106421E-19
(PID.TID 0000.0001) %MON surfExpan_salt_mean          =   3.9311771615758E-19
(PID.TID 0000.0001) // =======================================================
(PID.TID 0000.0001) // End MONITOR dynamic field statistics
(PID.TID 0000.0001) // =======================================================
 cg2d: Sum(rhs),rhsMax =  -9.86104527096614E-04  9.66055252097830E-02
 cg2d: Sum(rhs),rhsMax =  -9.86251131222613E-04  9.66204440248728E-02
 cg2d: Sum(rhs),rhsMax =  -9.86391935268196E-04  9.66353599744948E-02
 cg2d: Sum(rhs),rhsMax =  -9.86526939643410E-04  9.66502730938891E-02
 cg2d: Sum(rhs),rhsMax =  -9.86656158737824E-04  9.66651834022364E-02
 cg2d: Sum(rhs),rhsMax =  -9.86779620535620E-04  9.66800909189341E-02
 cg2d: Sum(rhs),rhsMax =  -9.86897360336265E-04  9.66949956633263E-02
 cg2d: Sum(rhs),rhsMax =  -9.87009416029604E-04  9.67098976540137E-02
 cg2d: Sum(rhs),rhsMax =  -9.87115824448388E-04  9.67247969089099E-02
 cg2d: Sum(rhs),rhsMax =  -9.87216621103564E-04  9.67396934456826E-02
 cg2d: Sum(rhs),rhsMax =  -9.87311840919148E-04  9.67545872820987E-02
 cg2d: Sum(rhs),rhsMax =  -9.87401519601923E-04  9.67694784361043E-02
 cg2d: Sum(rhs),rhsMax =  -9.87485696043247E-04  9.67843669258022E-02
 cg2d: Sum(rhs),rhsMax =  -9.87564410522251E-04  9.67992527693323E-02
 cg2d: Sum(rhs),rhsMax =  -9.87637705296005E-04  9.68141359848209E-02
 cg2d: Sum(rhs),rhsMax =  -9.87705625099290E-04  9.68290165903423E-02
 cg2d: Sum(rhs),rhsMax =  -9.87768215297533E-04  9.68438946039259E-02
 cg2d: Sum(rhs),rhsMax =  -9.87825523081798E-04  9.68587700435821E-02
 cg2d: Sum(rhs),rhsMax =  -9.87877597058363E-04  9.68736429273238E-02
 cg2d: Sum(rhs),rhsMax =  -9.87924486972831E-04  9.68885132731794E-02
 cg2d: Sum(rhs),rhsMax =  -9.87966244636301E-04  9.69033810991790E-02
 cg2d: Sum(rhs),rhsMax =  -9.88002923399341E-04  9.69182464233601E-02
 cg2d: Sum(rhs),rhsMax =  -9.88034578229161E-04  9.69331092637550E-02
 cg2d: Sum(rhs),rhsMax =  -9.88100219542595E-04  9.69479696811183E-02
 cg2d: Sum(rhs),rhsMax =  -9.88160314929903E-04  9.69628276152925E-02
 cg2d: Sum(rhs),rhsMax =  -9.88214912055092E-04  9.69776831146828E-02
 cg2d: Sum(rhs),rhsMax =  -9.88264071971834E-04  9.69925361990324E-02
 cg2d: Sum(rhs),rhsMax =  -9.88307862645987E-04  9.70073868876165E-02
 cg2d: Sum(rhs),rhsMax =  -9.88346360536588E-04  9.70222351994517E-02
 cg2d: Sum(rhs),rhsMax =  -9.88379648415749E-04  9.70370811536692E-02
 cg2d: Sum(rhs),rhsMax =  -9.88407811302012E-04  9.70519247687675E-02
 cg2d: Sum(rhs),rhsMax =  -9.88430933679594E-04  9.70667660626334E-02
 cg2d: Sum(rhs),rhsMax =  -9.88449099774195E-04  9.70816050529514E-02
 cg2d: Sum(rhs),rhsMax =  -9.88462394403023E-04  9.70964417574759E-02
 cg2d: Sum(rhs),rhsMax =  -9.88470903869436E-04  9.71112761941144E-02
 cg2d: Sum(rhs),rhsMax =  -9.88474715734249E-04  9.71261083808722E-02
 cg2d: Sum(rhs),rhsMax =  -9.88473920079704E-04  9.71409383357918E-02
 cg2d: Sum(rhs),rhsMax =  -9.88468608785358E-04  9.71557660768941E-02
 cg2d: Sum(rhs),rhsMax =  -9.88458874476222E-04  9.71705916221559E-02
 cg2d: Sum(rhs),rhsMax =  -9.88444812601595E-04  9.71854149895321E-02
 cg2d: Sum(rhs),rhsMax =  -9.88426518336753E-04  9.72002361969575E-02
 cg2d: Sum(rhs),rhsMax =  -9.88404089103459E-04  9.72150552623653E-02
 cg2d: Sum(rhs),rhsMax =  -9.88375374270423E-04  9.72300934937218E-02
 cg2d: Sum(rhs),rhsMax =  -9.88337910224332E-04  9.72456031806822E-02
 cg2d: Sum(rhs),rhsMax =  -9.88296612208148E-04  9.72611109972019E-02
 cg2d: Sum(rhs),rhsMax =  -9.88251581594598E-04  9.72766169610337E-02
 cg2d: Sum(rhs),rhsMax =  -9.88202922954876E-04  9.72921210899107E-02
 cg2d: Sum(rhs),rhsMax =  -9.88150740747696E-04  9.73076234015645E-02
 cg2d: Sum(rhs),rhsMax =  -9.88095141638532E-04  9.73231239137181E-02
 cg2d: Sum(rhs),rhsMax =  -9.88036232789511E-04  9.73386226440873E-02
 cg2d: Sum(rhs),rhsMax =  -9.87974122577305E-04  9.73541196103903E-02
 cg2d: Sum(rhs),rhsMax =  -9.87908920426401E-04  9.73696148303338E-02
 cg2d: Sum(rhs),rhsMax =  -9.87873736635326E-04  9.73851081553435E-02
 cg2d: Sum(rhs),rhsMax =  -9.87835360791715E-04  9.74005999125371E-02
 cg2d: Sum(rhs),rhsMax =  -9.87793922000345E-04  9.74160899993397E-02
 cg2d: Sum(rhs),rhsMax =  -9.87749539715883E-04  9.74315784122461E-02
 cg2d: Sum(rhs),rhsMax =  -9.87702338819521E-04  9.74470651656840E-02
 cg2d: Sum(rhs),rhsMax =  -9.87652446390961E-04  9.74625502779214E-02
 cg2d: Sum(rhs),rhsMax =  -9.87599991868690E-04  9.74780337674772E-02
 cg2d: Sum(rhs),rhsMax =  -9.87545103999798E-04  9.74935156524488E-02
 cg2d: Sum(rhs),rhsMax =  -9.87487912996434E-04  9.75089959504871E-02
 cg2d: Sum(rhs),rhsMax =  -9.87428548873126E-04  9.75244746790992E-02
 cg2d: Sum(rhs),rhsMax =  -9.87367142165511E-04  9.75399518558179E-02
 cg2d: Sum(rhs),rhsMax =  -9.87303823333598E-04  9.75554274982640E-02
 cg2d: Sum(rhs),rhsMax =  -9.87238723859238E-04  9.75709016240937E-02
 cg2d: Sum(rhs),rhsMax =  -9.87171975312510E-04  9.75863742509799E-02
 cg2d: Sum(rhs),rhsMax =  -9.87103710071914E-04  9.76018453965744E-02
 cg2d: Sum(rhs),rhsMax =  -9.87034060263955E-04  9.76173150785138E-02
 cg2d: Sum(rhs),rhsMax =  -9.86963158874234E-04  9.76327833144176E-02
 cg2d: Sum(rhs),rhsMax =  -9.86891138458009E-04  9.76482501218928E-02
 cg2d: Sum(rhs),rhsMax =  -9.86818132347682E-04  9.76637155185518E-02
 cg2d: Sum(rhs),rhsMax =  -9.86744273033968E-04  9.76791795220021E-02
(PID.TID 0000.0001)      cg2d_init_res =   2.80436274556890E-03
(PID.TID 0000.0001)      cg2d_iters(min,last) =      -1      79
(PID.TID 0000.0001)      cg2d_last_res =   9.55225587402836E-08
(PID.TID 0000.0001) // =======================================================
(PID.TID 0000.0001) // Begin MONITOR dynamic field statistics
(PID.TID 0000.0001) // =======================================================
(PID.TID 0000.0001) %MON time_tsnumber                =                  3456
(PID.TID 0000.0001) %MON time_secondsf                =   4.1472000000000E+06
(PID.TID 0000.0001) %MON dynstat_eta_max              =   9.7336262431727E-02
(PID.TID 0000.0001) %MON dynstat_eta_min              =  -4.7449783001317E-02
(PID.TID 0000.0001) %MON dynstat_eta_mean             =   4.8171475512602E-07
(PID.TID 0000.0001) %MON dynstat_eta_sd               =   4.2025886433875E-02
(PID.TID 0000.0001) %MON dynstat_eta_del2             =   1.4875434866306E-05
(PID.TID 0000.0001) %MON dynstat_uvel_max             =   7.2216239040089E-02
(PID.TID 0000.0001) %MON dynstat_uvel_min             =  -2.6918059785071E-02
(PID.TID 0000.0001) %MON dynstat_uvel_mean            =  -4.6094994886846E-08
(PID.TID 0000.0001) %MON dynstat_uvel_sd              =   1.9233708799099E-02
(PID.TID 0000.0001) %MON dynstat_uvel_del2            =   3.3120262827477E-05
(PID.TID 0000.0001) %MON dynstat_vvel_max             =   5.9383801297142E-02
(PID.TID 0000.0001) %MON dynstat_vvel_min             =  -3.9733220698198E-02
(PID.TID 0000.0001) %MON dynstat_vvel_mean            =   2.2118806364370E-07
(PID.TID 0000.0001) %MON dynstat_vvel_sd              =   1.7231984365432E-02
(PID.TID 0000.0001) %MON dynstat_vvel_del2            =   3.9130385440574E-05
(PID.TID 0000.0001) %MON dynstat_wvel_max             =   2.5010335224797E-08
(PID.TID 0000.0001) %MON dynstat_wvel_min             =  -1.3434494747271E-08
(PID.TID 0000.0001) %MON dynstat_wvel_mean            =  -1.1784767492726E-21
(PID.TID 0000.0001) %MON dynstat_wvel_sd              =   9.7877211966632E-09
(PID.TID 0000.0001) %MON dynstat_wvel_del2            =   4.6687268095916E-12
(PID.TID 0000.0001) %MON dynstat_theta_max            =   2.0000000000000E+01
(PID.TID 0000.0001) %MON dynstat_theta_min            =   2.0000000000000E+01
(PID.TID 0000.0001) %MON dynstat_theta_mean           =   2.0000000000000E+01
(PID.TID 0000.0001) %MON dynstat_theta_sd             =   3.8014036363165E-13
(PID.TID 0000.0001) %MON dynstat_theta_del2           =   0.0000000000000E+00
(PID.TID 0000.0001) %MON dynstat_salt_max             =   3.0000000000000E+01
(PID.TID 0000.0001) %MON dynstat_salt_min             =   3.0000000000000E+01
(PID.TID 0000.0001) %MON dynstat_salt_mean            =   2.9999999999999E+01
(PID.TID 0000.0001) %MON dynstat_salt_sd              =   5.5777604757167E-13
(PID.TID 0000.0001) %MON dynstat_salt_del2            =   0.0000000000000E+00
(PID.TID 0000.0001) %MON trAdv_CFL_u_max              =   4.3305931025847E-03
(PID.TID 0000.0001) %MON trAdv_CFL_v_max              =   3.5629562665232E-03
(PID.TID 0000.0001) %MON trAdv_CFL_w_max              =   6.6137836496086E-09
(PID.TID 0000.0001) %MON advcfl_uvel_max              =   4.3329743424053E-03
(PID.TID 0000.0001) %MON advcfl_vvel_max              =   3.5630280778285E-03
(PID.TID 0000.0001) %MON advcfl_wvel_max              =   1.2004960907903E-08
(PID.TID 0000.0001) %MON advcfl_W_hf_max              =   0.0000000000000E+00
(PID.TID 0000.0001) %MON pe_b_mean                    =   1.8107440163369E-06
(PID.TID 0000.0001) %MON ke_max                       =   2.6065233575680E-03
(PID.TID 0000.0001) %MON ke_mean                      =   3.2730694861794E-04
(PID.TID 0000.0001) %MON ke_vol                       =   6.8893493896486E+15
(PID.TID 0000.0001) %MON vort_r_min                   =  -6.7796039554427E-07
(PID.TID 0000.0001) %MON vort_r_max                   =   1.5242817692651E-06
(PID.TID 0000.0001) %MON vort_a_mean                  =   1.0600000000000E-04
(PID.TID 0000.0001) %MON vort_a_sd                    =   3.5311538980265E-06
(PID.TID 0000.0001) %MON vort_p_mean                  =   1.1652272308690E-04
(PID.TID 0000.0001) %MON vort_p_sd                    =   4.1746820638738E-05
(PID.TID 0000.0001) %MON surfExpan_theta_mean         =  -2.3558754946862E-20
(PID.TID 0000.0001) %MON surfExpan_salt_mean          =  -3.5359764499137E-20
(PID.TID 0000.0001) // =======================================================
(PID.TID 0000.0001) // End MONITOR dynamic field statistics
(PID.TID 0000.0001) // =======================================================
 cg2d: Sum(rhs),rhsMax =  -9.86669694185652E-04  9.76946421498452E-02
 cg2d: Sum(rhs),rhsMax =  -9.86594528163021E-04  9.77101034196901E-02
 cg2d: Sum(rhs),rhsMax =  -9.86518908605759E-04  9.77255633491324E-02
 cg2d: Sum(rhs),rhsMax =  -9.86442967930663E-04  9.77410219557592E-02
 cg2d: Sum(rhs),rhsMax =  -9.86366838981567E-04  9.77564792571525E-02
 cg2d: Sum(rhs),rhsMax =  -9.86290654021494E-04  9.77719352708900E-02
 cg2d: Sum(rhs),rhsMax =  -9.86214545622959E-04  9.77873900145361E-02
 cg2d: Sum(rhs),rhsMax =  -9.86138645174130E-04  9.78028435056561E-02
 cg2d: Sum(rhs),rhsMax =  -9.86063084583693E-04  9.78182957618061E-02
 cg2d: Sum(rhs),rhsMax =  -9.85987994446765E-04  9.78337468005398E-02
 cg2d: Sum(rhs),rhsMax =  -9.85913505401996E-04  9.78491966394069E-02
 cg2d: Sum(rhs),rhsMax =  -9.85839747338627E-04  9.78646452959449E-02
 cg2d: Sum(rhs),rhsMax =  -9.85766850036606E-04  9.78800927876960E-02
 cg2d: Sum(rhs),rhsMax =  -9.85694941884305E-04  9.78955391321875E-02
 cg2d: Sum(rhs),rhsMax =  -9.85624151610191E-04  9.79109843469424E-02
 cg2d: Sum(rhs),rhsMax =  -9.85554605784426E-04  9.79264284494786E-02
 cg2d: Sum(rhs),rhsMax =  -9.85486431872438E-04  9.79418714573060E-02
 cg2d: Sum(rhs),rhsMax =  -9.85419754781287E-04  9.79573133879333E-02
 cg2d: Sum(rhs),rhsMax =  -9.85354700255445E-04  9.79727542588545E-02
 cg2d: Sum(rhs),rhsMax =  -9.85291391812842E-04  9.79881940875694E-02
 cg2d: Sum(rhs),rhsMax =  -9.85229952894500E-04  9.80036328915595E-02
 cg2d: Sum(rhs),rhsMax =  -9.85170505230431E-04  9.80190706883092E-02
 cg2d: Sum(rhs),rhsMax =  -9.85113169658776E-04  9.80345074952894E-02
 cg2d: Sum(rhs),rhsMax =  -9.85058067025254E-04  9.80499433299708E-02
 cg2d: Sum(rhs),rhsMax =  -9.85005315398732E-04  9.80653782098151E-02
 cg2d: Sum(rhs),rhsMax =  -9.84955032528250E-04  9.80808121522786E-02
 cg2d: Sum(rhs),rhsMax =  -9.84907335204826E-04  9.80962451748084E-02
 cg2d: Sum(rhs),rhsMax =  -9.84862338419400E-04  9.81116772948485E-02
 cg2d: Sum(rhs),rhsMax =  -9.84820155970661E-04  9.81271085298330E-02
 cg2d: Sum(rhs),rhsMax =  -9.84780900605598E-04  9.81425388971959E-02
 cg2d: Sum(rhs),rhsMax =  -9.84744684420554E-04  9.81579684143571E-02
 cg2d: Sum(rhs),rhsMax =  -9.84711616076658E-04  9.81733970987309E-02
 cg2d: Sum(rhs),rhsMax =  -9.84681804689892E-04  9.81888249677303E-02
 cg2d: Sum(rhs),rhsMax =  -9.84655357564219E-04  9.82042520387584E-02
 cg2d: Sum(rhs),rhsMax =  -9.84632379880113E-04  9.82196783292106E-02
 cg2d: Sum(rhs),rhsMax =  -9.84612976102209E-04  9.82351038564767E-02
 cg2d: Sum(rhs),rhsMax =  -9.84597248681961E-04  9.82505286379401E-02
 cg2d: Sum(rhs),rhsMax =  -9.84585298605536E-04  9.82659526909749E-02
 cg2d: Sum(rhs),rhsMax =  -9.84577225599005E-04  9.82813760329533E-02
 cg2d: Sum(rhs),rhsMax =  -9.84573127298195E-04  9.82967986812354E-02
 cg2d: Sum(rhs),rhsMax =  -9.84573099629564E-04  9.83122206531789E-02
 cg2d: Sum(rhs),rhsMax =  -9.84577237718165E-04  9.83276419661270E-02
 cg2d: Sum(rhs),rhsMax =  -9.84550283623230E-04  9.83430628121123E-02
 cg2d: Sum(rhs),rhsMax =  -9.84527284453768E-04  9.83584828935242E-02
 cg2d: Sum(rhs),rhsMax =  -9.84508317709645E-04  9.83739023378652E-02
 cg2d: Sum(rhs),rhsMax =  -9.84493470737462E-04  9.83893211897302E-02
 cg2d: Sum(rhs),rhsMax =  -9.84482822835551E-04  9.84047394695241E-02
 cg2d: Sum(rhs),rhsMax =  -9.84476449169002E-04  9.84201571948270E-02
 cg2d: Sum(rhs),rhsMax =  -9.84474419166586E-04  9.84355743828256E-02
 cg2d: Sum(rhs),rhsMax =  -9.84476801156476E-04  9.84509910506706E-02
 cg2d: Sum(rhs),rhsMax =  -9.84483662397756E-04  9.84664072155493E-02
 cg2d: Sum(rhs),rhsMax =  -9.84495070072783E-04  9.84818228946271E-02
 cg2d: Sum(rhs),rhsMax =  -9.84511088667303E-04  9.84972381050711E-02
 cg2d: Sum(rhs),rhsMax =  -9.84531783208488E-04  9.85126528640903E-02
 cg2d: Sum(rhs),rhsMax =  -9.84557215210392E-04  9.85280671889461E-02
 cg2d: Sum(rhs),rhsMax =  -9.84587444951685E-04  9.85434810969295E-02
 cg2d: Sum(rhs),rhsMax =  -9.84622530257148E-04  9.85588946053163E-02
 cg2d: Sum(rhs),rhsMax =  -9.84662527399285E-04  9.85743077313663E-02
 cg2d: Sum(rhs),rhsMax =  -9.84707491109307E-04  9.85897204923032E-02
 cg2d: Sum(rhs),rhsMax =  -9.84757473834637E-04  9.86051329053398E-02
 cg2d: Sum(rhs),rhsMax =  -9.84812527055175E-04  9.86205449876693E-02
 cg2d: Sum(rhs),rhsMax =  -9.84872700132797E-04  9.86359567564910E-02
 cg2d: Sum(rhs),rhsMax =  -9.84938041203292E-04  9.86513682289914E-02
 cg2d: Sum(rhs),rhsMax =  -9.85008595864423E-04  9.86667794223573E-02
 cg2d: Sum(rhs),rhsMax =  -9.85084408592966E-04  9.86821903537642E-02
 cg2d: Sum(rhs),rhsMax =  -9.85165522126932E-04  9.86976010403856E-02
 cg2d: Sum(rhs),rhsMax =  -9.85251977024034E-04  9.87130114993832E-02
 cg2d: Sum(rhs),rhsMax =  -9.85301432160909E-04  9.87284217915808E-02
 cg2d: Sum(rhs),rhsMax =  -9.85355563945915E-04  9.87438318682406E-02
 cg2d: Sum(rhs),rhsMax =  -9.85414418847624E-04  9.87592417515013E-02
 cg2d: Sum(rhs),rhsMax =  -9.85478036500644E-04  9.87746514758770E-02
 cg2d: Sum(rhs),rhsMax =  -9.85546449348652E-04  9.87900610577152E-02
(PID.TID 0000.0001)      cg2d_init_res =   2.76467211772226E-03
(PID.TID 0000.0001)      cg2d_iters(min,last) =      -1      81
(PID.TID 0000.0001)      cg2d_last_res =   9.09586058588306E-08
(PID.TID 0000.0001) // =======================================================
(PID.TID 0000.0001) // Begin MONITOR dynamic field statistics
(PID.TID 0000.0001) // =======================================================
(PID.TID 0000.0001) %MON time_tsnumber                =                  3528
(PID.TID 0000.0001) %MON time_secondsf                =   4.2336000000000E+06
(PID.TID 0000.0001) %MON dynstat_eta_max              =   9.9102746824074E-02
(PID.TID 0000.0001) %MON dynstat_eta_min              =  -4.8066736265814E-02
(PID.TID 0000.0001) %MON dynstat_eta_mean             =   4.8667357993377E-07
(PID.TID 0000.0001) %MON dynstat_eta_sd               =   4.2746334624497E-02
(PID.TID 0000.0001) %MON dynstat_eta_del2             =   1.5126395256901E-05
(PID.TID 0000.0001) %MON dynstat_uvel_max             =   7.3052555860471E-02
(PID.TID 0000.0001) %MON dynstat_uvel_min             =  -2.7682531754504E-02
(PID.TID 0000.0001) %MON dynstat_uvel_mean            =  -4.4904445379622E-08
(PID.TID 0000.0001) %MON dynstat_uvel_sd              =   1.9500785741818E-02
(PID.TID 0000.0001) %MON dynstat_uvel_del2            =   3.3614226572596E-05
(PID.TID 0000.0001) %MON dynstat_vvel_max             =   5.9483215812785E-02
(PID.TID 0000.0001) %MON dynstat_vvel_min             =  -4.0769822889237E-02
(PID.TID 0000.0001) %MON dynstat_vvel_mean            =   2.2430740091225E-07
(PID.TID 0000.0001) %MON dynstat_vvel_sd              =   1.7505221801458E-02
(PID.TID 0000.0001) %MON dynstat_vvel_del2            =   3.9669920564960E-05
(PID.TID 0000.0001) %MON dynstat_wvel_max             =   2.4878693178762E-08
(PID.TID 0000.0001) %MON dynstat_wvel_min             =  -1.3663631590425E-08
(PID.TID 0000.0001) %MON dynstat_wvel_mean            =  -1.2270609456916E-21
(PID.TID 0000.0001) %MON dynstat_wvel_sd              =   9.7426138665466E-09
(PID.TID 0000.0001) %MON dynstat_wvel_del2            =   4.6508966475015E-12
(PID.TID 0000.0001) %MON dynstat_theta_max            =   2.0000000000000E+01
(PID.TID 0000.0001) %MON dynstat_theta_min            =   2.0000000000000E+01
(PID.TID 0000.0001) %MON dynstat_theta_mean           =   2.0000000000000E+01
(PID.TID 0000.0001) %MON dynstat_theta_sd             =   3.8014036363165E-13
(PID.TID 0000.0001) %MON dynstat_theta_del2           =   0.0000000000000E+00
(PID.TID 0000.0001) %MON dynstat_salt_max             =   3.0000000000000E+01
(PID.TID 0000.0001) %MON dynstat_salt_min             =   3.0000000000000E+01
(PID.TID 0000.0001) %MON dynstat_salt_mean            =   2.9999999999999E+01
(PID.TID 0000.0001) %MON dynstat_salt_sd              =   5.5777604757167E-13
(PID.TID 0000.0001) %MON dynstat_salt_del2            =   0.0000000000000E+00
(PID.TID 0000.0001) %MON trAdv_CFL_u_max              =   4.3807798691303E-03
(PID.TID 0000.0001) %MON trAdv_CFL_v_max              =   3.5688980165753E-03
(PID.TID 0000.0001) %MON trAdv_CFL_w_max              =   6.5790787013271E-09
(PID.TID 0000.0001) %MON advcfl_uvel_max              =   4.3831533516283E-03
(PID.TID 0000.0001) %MON advcfl_vvel_max              =   3.5689929487671E-03
(PID.TID 0000.0001) %MON advcfl_wvel_max              =   1.1941772725806E-08
(PID.TID 0000.0001) %MON advcfl_W_hf_max              =   0.0000000000000E+00
(PID.TID 0000.0001) %MON pe_b_mean                    =   1.8733591930317E-06
(PID.TID 0000.0001) %MON ke_max                       =   2.6666882358933E-03
(PID.TID 0000.0001) %MON ke_mean                      =   3.3704286261283E-04
(PID.TID 0000.0001) %MON ke_vol                       =   6.8893493896486E+15
(PID.TID 0000.0001) %MON vort_r_min                   =  -6.9056014744822E-07
(PID.TID 0000.0001) %MON vort_r_max                   =   1.5437771022050E-06
(PID.TID 0000.0001) %MON vort_a_mean                  =   1.0600000000000E-04
(PID.TID 0000.0001) %MON vort_a_sd                    =   3.5315394034567E-06
(PID.TID 0000.0001) %MON vort_p_mean                  =   1.1652272308690E-04
(PID.TID 0000.0001) %MON vort_p_sd                    =   4.1748160794959E-05
(PID.TID 0000.0001) %MON surfExpan_theta_mean         =  -2.4420564336146E-20
(PID.TID 0000.0001) %MON surfExpan_salt_mean          =  -3.6615688259189E-20
(PID.TID 0000.0001) // =======================================================
(PID.TID 0000.0001) // End MONITOR dynamic field statistics
(PID.TID 0000.0001) // =======================================================
 cg2d: Sum(rhs),rhsMax =  -9.85619678545265E-04  9.88054705148795E-02
 cg2d: Sum(rhs),rhsMax =  -9.85697739773424E-04  9.88208798648907E-02
 cg2d: Sum(rhs),rhsMax =  -9.85780646085250E-04  9.88362891249030E-02
 cg2d: Sum(rhs),rhsMax =  -9.85868410825534E-04  9.88516983118565E-02
 cg2d: Sum(rhs),rhsMax =  -9.85961048509849E-04  9.88671074425657E-02
 cg2d: Sum(rhs),rhsMax =  -9.86058573409204E-04  9.88825165338769E-02
 cg2d: Sum(rhs),rhsMax =  -9.86160999868427E-04  9.88979256027482E-02
 cg2d: Sum(rhs),rhsMax =  -9.86268338534883E-04  9.89133346662592E-02
 cg2d: Sum(rhs),rhsMax =  -9.86380599509402E-04  9.89287437415334E-02
 cg2d: Sum(rhs),rhsMax =  -9.86497790969772E-04  9.89441528456844E-02
 cg2d: Sum(rhs),rhsMax =  -9.86619918828098E-04  9.89595619957801E-02
 cg2d: Sum(rhs),rhsMax =  -9.86746989116053E-04  9.89749712088448E-02
 cg2d: Sum(rhs),rhsMax =  -9.86879006133406E-04  9.89903805018722E-02
 cg2d: Sum(rhs),rhsMax =  -9.87015972826015E-04  9.90057898918520E-02
 cg2d: Sum(rhs),rhsMax =  -9.87109776818436E-04  9.90211997582225E-02
 cg2d: Sum(rhs),rhsMax =  -9.87207658786213E-04  9.90366093945104E-02
 cg2d: Sum(rhs),rhsMax =  -9.87309618531926E-04  9.90520191812590E-02
 cg2d: Sum(rhs),rhsMax =  -9.87415670603030E-04  9.90674291338645E-02
 cg2d: Sum(rhs),rhsMax =  -9.87525816529763E-04  9.90828392667947E-02
 cg2d: Sum(rhs),rhsMax =  -9.87640047130013E-04  9.90982495982222E-02
 cg2d: Sum(rhs),rhsMax =  -9.87758345506615E-04  9.91136601459450E-02
 cg2d: Sum(rhs),rhsMax =  -9.87880694328983E-04  9.91290709271436E-02
 cg2d: Sum(rhs),rhsMax =  -9.88007077099163E-04  9.91444819585579E-02
 cg2d: Sum(rhs),rhsMax =  -9.88137478930114E-04  9.91598932567271E-02
 cg2d: Sum(rhs),rhsMax =  -9.88271886602901E-04  9.91753048382383E-02
 cg2d: Sum(rhs),rhsMax =  -9.88410285942511E-04  9.91907167198530E-02
 cg2d: Sum(rhs),rhsMax =  -9.88552661605125E-04  9.92061289184860E-02
 cg2d: Sum(rhs),rhsMax =  -9.88698996517972E-04  9.92215414511242E-02
 cg2d: Sum(rhs),rhsMax =  -9.88849273278858E-04  9.92369543347314E-02
 cg2d: Sum(rhs),rhsMax =  -9.89003473470907E-04  9.92523675862118E-02
 cg2d: Sum(rhs),rhsMax =  -9.89161577730300E-04  9.92677812224246E-02
 cg2d: Sum(rhs),rhsMax =  -9.89323566192819E-04  9.92831952601811E-02
 cg2d: Sum(rhs),rhsMax =  -9.89489419796347E-04  9.92986097162965E-02
 cg2d: Sum(rhs),rhsMax =  -9.89659117591534E-04  9.93140246075794E-02
 cg2d: Sum(rhs),rhsMax =  -9.89832638414831E-04  9.93294399508393E-02
 cg2d: Sum(rhs),rhsMax =  -9.90009960888237E-04  9.93448557628896E-02
 cg2d: Sum(rhs),rhsMax =  -9.90191062699087E-04  9.93602720605208E-02
 cg2d: Sum(rhs),rhsMax =  -9.90375921731641E-04  9.93756888605275E-02
 cg2d: Sum(rhs),rhsMax =  -9.90511545624854E-04  9.93911058358105E-02
 cg2d: Sum(rhs),rhsMax =  -9.90650075242527E-04  9.94065236795483E-02
 cg2d: Sum(rhs),rhsMax =  -9.90791515859381E-04  9.94219420896165E-02
 cg2d: Sum(rhs),rhsMax =  -9.90935857033397E-04  9.94373610670177E-02
 cg2d: Sum(rhs),rhsMax =  -9.91083083016122E-04  9.94527806283432E-02
 cg2d: Sum(rhs),rhsMax =  -9.91233168548697E-04  9.94682007918655E-02
 cg2d: Sum(rhs),rhsMax =  -9.91386083436019E-04  9.94836215755151E-02
 cg2d: Sum(rhs),rhsMax =  -9.91541797582852E-04  9.94990429964269E-02
 cg2d: Sum(rhs),rhsMax =  -9.91700281577353E-04  9.95144650711052E-02
 cg2d: Sum(rhs),rhsMax =  -9.91861508913450E-04  9.95298878157853E-02
 cg2d: Sum(rhs),rhsMax =  -9.92025453734856E-04  9.95453112467666E-02
 cg2d: Sum(rhs),rhsMax =  -9.92192090882943E-04  9.95607353805654E-02
 cg2d: Sum(rhs),rhsMax =  -9.92361393879211E-04  9.95761602338743E-02
 cg2d: Sum(rhs),rhsMax =  -9.92533336468426E-04  9.95915858234623E-02
 cg2d: Sum(rhs),rhsMax =  -9.92707891217470E-04  9.96070121660724E-02
 cg2d: Sum(rhs),rhsMax =  -9.92885031026323E-04  9.96224392783828E-02
 cg2d: Sum(rhs),rhsMax =  -9.93064728752071E-04  9.96378671770085E-02
 cg2d: Sum(rhs),rhsMax =  -9.93246957357797E-04  9.96532958785348E-02
 cg2d: Sum(rhs),rhsMax =  -9.93431689616346E-04  9.96687253995297E-02
 cg2d: Sum(rhs),rhsMax =  -9.93618898658417E-04  9.96841557565707E-02
 cg2d: Sum(rhs),rhsMax =  -9.93808557113562E-04  9.96995869662329E-02
 cg2d: Sum(rhs),rhsMax =  -9.94000637956443E-04  9.97150190450880E-02
 cg2d: Sum(rhs),rhsMax =  -9.94195114506297E-04  9.97304520096972E-02
 cg2d: Sum(rhs),rhsMax =  -9.94391959256612E-04  9.97458858766107E-02
 cg2d: Sum(rhs),rhsMax =  -9.94591145121237E-04  9.97613206623613E-02
 cg2d: Sum(rhs),rhsMax =  -9.94792645302216E-04  9.97767563834739E-02
 cg2d: Sum(rhs),rhsMax =  -9.94996432621909E-04  9.97921930564593E-02
 cg2d: Sum(rhs),rhsMax =  -9.95202480241101E-04  9.98076306978271E-02
 cg2d: Sum(rhs),rhsMax =  -9.95410761059870E-04  9.98230693240661E-02
 cg2d: Sum(rhs),rhsMax =  -9.95621248710971E-04  9.98385089516624E-02
 cg2d: Sum(rhs),rhsMax =  -9.95833915919168E-04  9.98539495970925E-02
 cg2d: Sum(rhs),rhsMax =  -9.96048736450105E-04  9.98693912768131E-02
 cg2d: Sum(rhs),rhsMax =  -9.96265683649585E-04  9.98848340072784E-02
 cg2d: Sum(rhs),rhsMax =  -9.96484730619123E-04  9.99002778049239E-02
(PID.TID 0000.0001)      cg2d_init_res =   2.72634925371214E-03
(PID.TID 0000.0001)      cg2d_iters(min,last) =      -1      84
(PID.TID 0000.0001)      cg2d_last_res =   8.76269257500746E-08
(PID.TID 0000.0001) // =======================================================
(PID.TID 0000.0001) // Begin MONITOR dynamic field statistics
(PID.TID 0000.0001) // =======================================================
(PID.TID 0000.0001) %MON time_tsnumber                =                  3600
(PID.TID 0000.0001) %MON time_secondsf                =   4.3200000000000E+06
(PID.TID 0000.0001) %MON dynstat_eta_max              =   1.0084075558474E-01
(PID.TID 0000.0001) %MON dynstat_eta_min              =  -4.8669613366354E-02
(PID.TID 0000.0001) %MON dynstat_eta_mean             =   4.9764815099900E-07
(PID.TID 0000.0001) %MON dynstat_eta_sd               =   4.3466406128058E-02
(PID.TID 0000.0001) %MON dynstat_eta_del2             =   1.5373419736029E-05
(PID.TID 0000.0001) %MON dynstat_uvel_max             =   7.3858255122828E-02
(PID.TID 0000.0001) %MON dynstat_uvel_min             =  -2.8428938423430E-02
(PID.TID 0000.0001) %MON dynstat_uvel_mean            =  -4.4258691805456E-08
(PID.TID 0000.0001) %MON dynstat_uvel_sd              =   1.9764999872668E-02
(PID.TID 0000.0001) %MON dynstat_uvel_del2            =   3.4098946040129E-05
(PID.TID 0000.0001) %MON dynstat_vvel_max             =   5.9615273673417E-02
(PID.TID 0000.0001) %MON dynstat_vvel_min             =  -4.1807470842050E-02
(PID.TID 0000.0001) %MON dynstat_vvel_mean            =   2.2649946647969E-07
(PID.TID 0000.0001) %MON dynstat_vvel_sd              =   1.7777253401236E-02
(PID.TID 0000.0001) %MON dynstat_vvel_del2            =   4.0219792851243E-05
(PID.TID 0000.0001) %MON dynstat_wvel_max             =   2.4717632065294E-08
(PID.TID 0000.0001) %MON dynstat_wvel_min             =  -1.3790055585123E-08
(PID.TID 0000.0001) %MON dynstat_wvel_mean            =   3.5150080495643E-21
(PID.TID 0000.0001) %MON dynstat_wvel_sd              =   9.6930815080716E-09
(PID.TID 0000.0001) %MON dynstat_wvel_del2            =   4.6324702262111E-12
(PID.TID 0000.0001) %MON dynstat_theta_max            =   2.0000000000000E+01
(PID.TID 0000.0001) %MON dynstat_theta_min            =   2.0000000000000E+01
(PID.TID 0000.0001) %MON dynstat_theta_mean           =   2.0000000000000E+01
(PID.TID 0000.0001) %MON dynstat_theta_sd             =   3.8014036363165E-13
(PID.TID 0000.0001) %MON dynstat_theta_del2           =   0.0000000000000E+00
(PID.TID 0000.0001) %MON dynstat_salt_max             =   3.0000000000000E+01
(PID.TID 0000.0001) %MON dynstat_salt_min             =   3.0000000000000E+01
(PID.TID 0000.0001) %MON dynstat_salt_mean            =   2.9999999999999E+01
(PID.TID 0000.0001) %MON dynstat_salt_sd              =   5.5777604757167E-13
(PID.TID 0000.0001) %MON dynstat_salt_del2            =   0.0000000000000E+00
(PID.TID 0000.0001) %MON trAdv_CFL_u_max              =   4.4291271152635E-03
(PID.TID 0000.0001) %MON trAdv_CFL_v_max              =   3.5767904129059E-03
(PID.TID 0000.0001) %MON trAdv_CFL_w_max              =   6.5465070608114E-09
(PID.TID 0000.0001) %MON advcfl_uvel_max              =   4.4314953073697E-03
(PID.TID 0000.0001) %MON advcfl_vvel_max              =   3.5769164204050E-03
(PID.TID 0000.0001) %MON advcfl_wvel_max              =   1.1864463391341E-08
(PID.TID 0000.0001) %MON advcfl_W_hf_max              =   0.0000000000000E+00
(PID.TID 0000.0001) %MON pe_b_mean                    =   1.9370050838768E-06
(PID.TID 0000.0001) %MON ke_max                       =   2.7258392370668E-03
(PID.TID 0000.0001) %MON ke_mean                      =   3.4684549087522E-04
(PID.TID 0000.0001) %MON ke_vol                       =   6.8893493896486E+15
(PID.TID 0000.0001) %MON vort_r_min                   =  -7.0213820511851E-07
(PID.TID 0000.0001) %MON vort_r_max                   =   1.5626657975794E-06
(PID.TID 0000.0001) %MON vort_a_mean                  =   1.0600000000000E-04
(PID.TID 0000.0001) %MON vort_a_sd                    =   3.5319250383517E-06
(PID.TID 0000.0001) %MON vort_p_mean                  =   1.1652272308690E-04
(PID.TID 0000.0001) %MON vort_p_sd                    =   4.1749445959534E-05
(PID.TID 0000.0001) %MON surfExpan_theta_mean         =   7.0363626036851E-20
(PID.TID 0000.0001) %MON surfExpan_salt_mean          =   1.0552428067159E-19
(PID.TID 0000.0001) // =======================================================
(PID.TID 0000.0001) // End MONITOR dynamic field statistics
(PID.TID 0000.0001) // =======================================================
 cg2d: Sum(rhs),rhsMax =  -9.96646501522896E-04  9.99157227852466E-02
 cg2d: Sum(rhs),rhsMax =  -9.96809795263929E-04  9.99311687873253E-02
 cg2d: Sum(rhs),rhsMax =  -9.96974586442788E-04  9.99466158905914E-02
 cg2d: Sum(rhs),rhsMax =  -9.97140867615515E-04  9.99620641241226E-02
 cg2d: Sum(rhs),rhsMax =  -9.97308622215913E-04  9.99775135043867E-02
 cg2d: Sum(rhs),rhsMax =  -9.97477827556627E-04  9.99929640491939E-02
 cg2d: Sum(rhs),rhsMax =  -9.97648459344396E-04  1.00008415776395E-01
 cg2d: Sum(rhs),rhsMax =  -9.97820492274770E-04  1.00023868702923E-01
 cg2d: Sum(rhs),rhsMax =  -9.97993903217604E-04  1.00039322844912E-01
 cg2d: Sum(rhs),rhsMax =  -9.98168669808445E-04  1.00054778218185E-01
 cg2d: Sum(rhs),rhsMax =  -9.98344770981107E-04  1.00070234838659E-01
 cg2d: Sum(rhs),rhsMax =  -9.98522186087290E-04  1.00085692722478E-01
 cg2d: Sum(rhs),rhsMax =  -9.98700894236738E-04  1.00101151885992E-01
 cg2d: Sum(rhs),rhsMax =  -9.98880873942596E-04  1.00116612345599E-01
 cg2d: Sum(rhs),rhsMax =  -9.99062104517098E-04  1.00132074117691E-01
 cg2d: Sum(rhs),rhsMax =  -9.99244565139702E-04  1.00147537218574E-01
 cg2d: Sum(rhs),rhsMax =  -9.99428234625319E-04  1.00163001664499E-01
 cg2d: Sum(rhs),rhsMax =  -9.99613092842414E-04  1.00178467471681E-01
 cg2d: Sum(rhs),rhsMax =  -9.99799118960996E-04  1.00193934656324E-01
 cg2d: Sum(rhs),rhsMax =  -9.99986293217313E-04  1.00209403234630E-01
 cg2d: Sum(rhs),rhsMax =  -1.00017459606103E-03  1.00224873222808E-01
 cg2d: Sum(rhs),rhsMax =  -1.00036400652088E-03  1.00240344637056E-01
 cg2d: Sum(rhs),rhsMax =  -1.00055450598218E-03  1.00255817493564E-01
 cg2d: Sum(rhs),rhsMax =  -1.00074607477927E-03  1.00271291808503E-01
 cg2d: Sum(rhs),rhsMax =  -1.00093869340065E-03  1.00286767598032E-01
 cg2d: Sum(rhs),rhsMax =  -1.00113234305196E-03  1.00302244878300E-01
 cg2d: Sum(rhs),rhsMax =  -1.00132700469351E-03  1.00317723665439E-01
 cg2d: Sum(rhs),rhsMax =  -1.00152265925959E-03  1.00333203975575E-01
 cg2d: Sum(rhs),rhsMax =  -1.00171928857616E-03  1.00348685824820E-01
 cg2d: Sum(rhs),rhsMax =  -1.00191687403079E-03  1.00364169229278E-01
 cg2d: Sum(rhs),rhsMax =  -1.00211539744950E-03  1.00379654205038E-01
 cg2d: Sum(rhs),rhsMax =  -1.00231484086137E-03  1.00395140768178E-01
 cg2d: Sum(rhs),rhsMax =  -1.00251518550574E-03  1.00410628934766E-01
 cg2d: Sum(rhs),rhsMax =  -1.00271641477279E-03  1.00426118720849E-01
 cg2d: Sum(rhs),rhsMax =  -1.00291851039052E-03  1.00441610142476E-01
 cg2d: Sum(rhs),rhsMax =  -1.00312145542363E-03  1.00457103215667E-01
 cg2d: Sum(rhs),rhsMax =  -1.00332523225422E-03  1.00472597956446E-01
 cg2d: Sum(rhs),rhsMax =  -1.00352982391784E-03  1.00488094380812E-01
 cg2d: Sum(rhs),rhsMax =  -1.00373521332802E-03  1.00503592504764E-01
 cg2d: Sum(rhs),rhsMax =  -1.00394138397775E-03  1.00519092344281E-01
 cg2d: Sum(rhs),rhsMax =  -1.00414831956634E-03  1.00534593915333E-01
 cg2d: Sum(rhs),rhsMax =  -1.00435600340189E-03  1.00550097233874E-01
 cg2d: Sum(rhs),rhsMax =  -1.00456441901692E-03  1.00565602315853E-01
 cg2d: Sum(rhs),rhsMax =  -1.00477355091501E-03  1.00581109177197E-01
 cg2d: Sum(rhs),rhsMax =  -1.00498338228694E-03  1.00596617833829E-01
 cg2d: Sum(rhs),rhsMax =  -1.00519389824877E-03  1.00612128301654E-01
 cg2d: Sum(rhs),rhsMax =  -1.00540508270504E-03  1.00627640596567E-01
 cg2d: Sum(rhs),rhsMax =  -1.00561692057386E-03  1.00643154734452E-01
 cg2d: Sum(rhs),rhsMax =  -1.00582939609119E-03  1.00658670731175E-01
 cg2d: Sum(rhs),rhsMax =  -1.00604249461221E-03  1.00674188602598E-01
 cg2d: Sum(rhs),rhsMax =  -1.00625620073857E-03  1.00689708364566E-01
 cg2d: Sum(rhs),rhsMax =  -1.00639867200574E-03  1.00705230091719E-01
 cg2d: Sum(rhs),rhsMax =  -1.00654145214838E-03  1.00720753692463E-01
 cg2d: Sum(rhs),rhsMax =  -1.00668456365408E-03  1.00736279226420E-01
 cg2d: Sum(rhs),rhsMax =  -1.00682799094867E-03  1.00751806713503E-01
 cg2d: Sum(rhs),rhsMax =  -1.00697172510338E-03  1.00767336167049E-01
 cg2d: Sum(rhs),rhsMax =  -1.00711575641858E-03  1.00782867604429E-01
 cg2d: Sum(rhs),rhsMax =  -1.00726007247446E-03  1.00798401043238E-01
 cg2d: Sum(rhs),rhsMax =  -1.00740466238913E-03  1.00813936499990E-01
 cg2d: Sum(rhs),rhsMax =  -1.00754951500322E-03  1.00829473990214E-01
 cg2d: Sum(rhs),rhsMax =  -1.00769462031952E-03  1.00845013529074E-01
 cg2d: Sum(rhs),rhsMax =  -1.00783996823842E-03  1.00860555131824E-01
 cg2d: Sum(rhs),rhsMax =  -1.00798554983226E-03  1.00876098813995E-01
 cg2d: Sum(rhs),rhsMax =  -1.00813135483783E-03  1.00891644591312E-01
 cg2d: Sum(rhs),rhsMax =  -1.00827737436607E-03  1.00907192479564E-01
 cg2d: Sum(rhs),rhsMax =  -1.00842359862185E-03  1.00922742494512E-01
 cg2d: Sum(rhs),rhsMax =  -1.00857001781657E-03  1.00938294651848E-01
 cg2d: Sum(rhs),rhsMax =  -1.00871662275178E-03  1.00953848967187E-01
 cg2d: Sum(rhs),rhsMax =  -1.00886340442373E-03  1.00969405456122E-01
 cg2d: Sum(rhs),rhsMax =  -1.00901035402820E-03  1.00984964134227E-01
 cg2d: Sum(rhs),rhsMax =  -1.00915746200362E-03  1.01000525017082E-01
 cg2d: Sum(rhs),rhsMax =  -1.00930472014317E-03  1.01016088120254E-01
(PID.TID 0000.0001)      cg2d_init_res =   2.68954814121142E-03
(PID.TID 0000.0001)      cg2d_iters(min,last) =      -1      85
(PID.TID 0000.0001)      cg2d_last_res =   9.89857152044863E-08
(PID.TID 0000.0001) // =======================================================
(PID.TID 0000.0001) // Begin MONITOR dynamic field statistics
(PID.TID 0000.0001) // =======================================================
(PID.TID 0000.0001) %MON time_tsnumber                =                  3672
(PID.TID 0000.0001) %MON time_secondsf                =   4.4064000000000E+06
(PID.TID 0000.0001) %MON dynstat_eta_max              =   1.0256679258593E-01
(PID.TID 0000.0001) %MON dynstat_eta_min              =  -4.9259206847385E-02
(PID.TID 0000.0001) %MON dynstat_eta_mean             =   5.0967179258577E-07
(PID.TID 0000.0001) %MON dynstat_eta_sd               =   4.4185436621260E-02
(PID.TID 0000.0001) %MON dynstat_eta_del2             =   1.5616300470502E-05
(PID.TID 0000.0001) %MON dynstat_uvel_max             =   7.4637214329181E-02
(PID.TID 0000.0001) %MON dynstat_uvel_min             =  -2.9158145161280E-02
(PID.TID 0000.0001) %MON dynstat_uvel_mean            =  -4.4396001081606E-08
(PID.TID 0000.0001) %MON dynstat_uvel_sd              =   2.0026507110303E-02
(PID.TID 0000.0001) %MON dynstat_uvel_del2            =   3.4575805821605E-05
(PID.TID 0000.0001) %MON dynstat_vvel_max             =   5.9789143881899E-02
(PID.TID 0000.0001) %MON dynstat_vvel_min             =  -4.2835777065547E-02
(PID.TID 0000.0001) %MON dynstat_vvel_mean            =   2.2775099963665E-07
(PID.TID 0000.0001) %MON dynstat_vvel_sd              =   1.8047969812032E-02
(PID.TID 0000.0001) %MON dynstat_vvel_del2            =   4.0775275086296E-05
(PID.TID 0000.0001) %MON dynstat_wvel_max             =   2.4557822523639E-08
(PID.TID 0000.0001) %MON dynstat_wvel_min             =  -1.3845122082057E-08
(PID.TID 0000.0001) %MON dynstat_wvel_mean            =   3.4832661791976E-22
(PID.TID 0000.0001) %MON dynstat_wvel_sd              =   9.6383969745076E-09
(PID.TID 0000.0001) %MON dynstat_wvel_del2            =   4.6106787760144E-12
(PID.TID 0000.0001) %MON dynstat_theta_max            =   2.0000000000000E+01
(PID.TID 0000.0001) %MON dynstat_theta_min            =   2.0000000000000E+01
(PID.TID 0000.0001) %MON dynstat_theta_mean           =   2.0000000000000E+01
(PID.TID 0000.0001) %MON dynstat_theta_sd             =   3.8014036363165E-13
(PID.TID 0000.0001) %MON dynstat_theta_del2           =   0.0000000000000E+00
(PID.TID 0000.0001) %MON dynstat_salt_max             =   3.0000000000000E+01
(PID.TID 0000.0001) %MON dynstat_salt_min             =   3.0000000000000E+01
(PID.TID 0000.0001) %MON dynstat_salt_mean            =   2.9999999999999E+01
(PID.TID 0000.0001) %MON dynstat_salt_sd              =   5.5777604757167E-13
(PID.TID 0000.0001) %MON dynstat_salt_del2            =   0.0000000000000E+00
(PID.TID 0000.0001) %MON trAdv_CFL_u_max              =   4.4758672992355E-03
(PID.TID 0000.0001) %MON trAdv_CFL_v_max              =   3.5871842279672E-03
(PID.TID 0000.0001) %MON trAdv_CFL_w_max              =   6.5118358338367E-09
(PID.TID 0000.0001) %MON advcfl_uvel_max              =   4.4782328597509E-03
(PID.TID 0000.0001) %MON advcfl_vvel_max              =   3.5873486329139E-03
(PID.TID 0000.0001) %MON advcfl_wvel_max              =   1.1787754811347E-08
(PID.TID 0000.0001) %MON advcfl_W_hf_max              =   0.0000000000000E+00
(PID.TID 0000.0001) %MON pe_b_mean                    =   2.0016198316185E-06
(PID.TID 0000.0001) %MON ke_max                       =   2.7841560520152E-03
(PID.TID 0000.0001) %MON ke_mean                      =   3.5671276773185E-04
(PID.TID 0000.0001) %MON ke_vol                       =   6.8893493896486E+15
(PID.TID 0000.0001) %MON vort_r_min                   =  -7.1408219576779E-07
(PID.TID 0000.0001) %MON vort_r_max                   =   1.5951623962486E-06
(PID.TID 0000.0001) %MON vort_a_mean                  =   1.0600000000000E-04
(PID.TID 0000.0001) %MON vort_a_sd                    =   3.5323099764547E-06
(PID.TID 0000.0001) %MON vort_p_mean                  =   1.1652272308690E-04
(PID.TID 0000.0001) %MON vort_p_sd                    =   4.1750677856136E-05
(PID.TID 0000.0001) %MON surfExpan_theta_mean         =   6.9903194344079E-21
(PID.TID 0000.0001) %MON surfExpan_salt_mean          =   1.0522111577100E-20
(PID.TID 0000.0001) // =======================================================
(PID.TID 0000.0001) // End MONITOR dynamic field statistics
(PID.TID 0000.0001) // =======================================================
 cg2d: Sum(rhs),rhsMax =  -1.00945211907372E-03  1.01031653459316E-01
 cg2d: Sum(rhs),rhsMax =  -1.00959965098915E-03  1.01047221049812E-01
 cg2d: Sum(rhs),rhsMax =  -1.00974730706714E-03  1.01062790907283E-01
 cg2d: Sum(rhs),rhsMax =  -1.00989507866815E-03  1.01078363047245E-01
 cg2d: Sum(rhs),rhsMax =  -1.01004295788481E-03  1.01093937485200E-01
 cg2d: Sum(rhs),rhsMax =  -1.01019093657363E-03  1.01109514236640E-01
 cg2d: Sum(rhs),rhsMax =  -1.01033900574716E-03  1.01125093317044E-01
 cg2d: Sum(rhs),rhsMax =  -1.01048715869807E-03  1.01140674741880E-01
 cg2d: Sum(rhs),rhsMax =  -1.01063538663200E-03  1.01156258526600E-01
 cg2d: Sum(rhs),rhsMax =  -1.01078368222882E-03  1.01171844686647E-01
 cg2d: Sum(rhs),rhsMax =  -1.01093203792318E-03  1.01187433237447E-01
 cg2d: Sum(rhs),rhsMax =  -1.01108044552405E-03  1.01203024194409E-01
 cg2d: Sum(rhs),rhsMax =  -1.01114911213078E-03  1.01218617800213E-01
 cg2d: Sum(rhs),rhsMax =  -1.01121773478190E-03  1.01234213611317E-01
 cg2d: Sum(rhs),rhsMax =  -1.01128627692842E-03  1.01249811885501E-01
 cg2d: Sum(rhs),rhsMax =  -1.01135474645213E-03  1.01265412626310E-01
 cg2d: Sum(rhs),rhsMax =  -1.01142313940657E-03  1.01281015846484E-01
 cg2d: Sum(rhs),rhsMax =  -1.01149145239456E-03  1.01296621563149E-01
 cg2d: Sum(rhs),rhsMax =  -1.01155967986805E-03  1.01312229793748E-01
 cg2d: Sum(rhs),rhsMax =  -1.01162781705482E-03  1.01327840554493E-01
 cg2d: Sum(rhs),rhsMax =  -1.01169585952863E-03  1.01343453860450E-01
 cg2d: Sum(rhs),rhsMax =  -1.01176380325581E-03  1.01359069726276E-01
 cg2d: Sum(rhs),rhsMax =  -1.01183164367121E-03  1.01374688166759E-01
 cg2d: Sum(rhs),rhsMax =  -1.01189937770388E-03  1.01390309196964E-01
 cg2d: Sum(rhs),rhsMax =  -1.01196700041596E-03  1.01405932832177E-01
 cg2d: Sum(rhs),rhsMax =  -1.01203450880008E-03  1.01421559087744E-01
 cg2d: Sum(rhs),rhsMax =  -1.01210189798357E-03  1.01437187978977E-01
 cg2d: Sum(rhs),rhsMax =  -1.01216916493044E-03  1.01452819521120E-01
 cg2d: Sum(rhs),rhsMax =  -1.01223630532362E-03  1.01468453729344E-01
 cg2d: Sum(rhs),rhsMax =  -1.01230331624613E-03  1.01484090618783E-01
 cg2d: Sum(rhs),rhsMax =  -1.01237019287478E-03  1.01499730204557E-01
 cg2d: Sum(rhs),rhsMax =  -1.01243693259192E-03  1.01515372501789E-01
 cg2d: Sum(rhs),rhsMax =  -1.01250353155114E-03  1.01531017525595E-01
 cg2d: Sum(rhs),rhsMax =  -1.01256998598486E-03  1.01546665291083E-01
 cg2d: Sum(rhs),rhsMax =  -1.01263629286573E-03  1.01562315813339E-01
 cg2d: Sum(rhs),rhsMax =  -1.01270244852839E-03  1.01577969107445E-01
 cg2d: Sum(rhs),rhsMax =  -1.01276844991679E-03  1.01593625188450E-01
 cg2d: Sum(rhs),rhsMax =  -1.01283429377979E-03  1.01609284071397E-01
 cg2d: Sum(rhs),rhsMax =  -1.01289997615801E-03  1.01624945771311E-01
 cg2d: Sum(rhs),rhsMax =  -1.01296549468938E-03  1.01640610303215E-01
 cg2d: Sum(rhs),rhsMax =  -1.01303084575498E-03  1.01656277682103E-01
 cg2d: Sum(rhs),rhsMax =  -1.01309602674480E-03  1.01671947922965E-01
 cg2d: Sum(rhs),rhsMax =  -1.01316103445025E-03  1.01687621040772E-01
 cg2d: Sum(rhs),rhsMax =  -1.01322586582803E-03  1.01703297050486E-01
 cg2d: Sum(rhs),rhsMax =  -1.01329051828475E-03  1.01718975967041E-01
 cg2d: Sum(rhs),rhsMax =  -1.01335498855627E-03  1.01734657805365E-01
 cg2d: Sum(rhs),rhsMax =  -1.01341927386682E-03  1.01750342580371E-01
 cg2d: Sum(rhs),rhsMax =  -1.01348337172950E-03  1.01766030306950E-01
 cg2d: Sum(rhs),rhsMax =  -1.01354727892176E-03  1.01781720999984E-01
 cg2d: Sum(rhs),rhsMax =  -1.01361099331766E-03  1.01797414674346E-01
 cg2d: Sum(rhs),rhsMax =  -1.01367451228938E-03  1.01813111344880E-01
 cg2d: Sum(rhs),rhsMax =  -1.01373783250654E-03  1.01828811026427E-01
 cg2d: Sum(rhs),rhsMax =  -1.01380095220395E-03  1.01844513733808E-01
 cg2d: Sum(rhs),rhsMax =  -1.01386386857597E-03  1.01860219481832E-01
 cg2d: Sum(rhs),rhsMax =  -1.01392657959840E-03  1.01875928285287E-01
 cg2d: Sum(rhs),rhsMax =  -1.01398908215841E-03  1.01891640158952E-01
 cg2d: Sum(rhs),rhsMax =  -1.01405137402039E-03  1.01907355117586E-01
 cg2d: Sum(rhs),rhsMax =  -1.01411345349162E-03  1.01923073175937E-01
 cg2d: Sum(rhs),rhsMax =  -1.01417531771820E-03  1.01938794348732E-01
 cg2d: Sum(rhs),rhsMax =  -1.01423696473717E-03  1.01954518650690E-01
 cg2d: Sum(rhs),rhsMax =  -1.01429839207880E-03  1.01970246096507E-01
 cg2d: Sum(rhs),rhsMax =  -1.01435959790335E-03  1.01985976700871E-01
 cg2d: Sum(rhs),rhsMax =  -1.01442057991803E-03  1.02001710478453E-01
 cg2d: Sum(rhs),rhsMax =  -1.01448133625996E-03  1.02017447443902E-01
 cg2d: Sum(rhs),rhsMax =  -1.01454186461430E-03  1.02033187611861E-01
 cg2d: Sum(rhs),rhsMax =  -1.01460216340383E-03  1.02048930996949E-01
 cg2d: Sum(rhs),rhsMax =  -1.01466223011665E-03  1.02064677613776E-01
 cg2d: Sum(rhs),rhsMax =  -1.01472206329948E-03  1.02080427476933E-01
 cg2d: Sum(rhs),rhsMax =  -1.01478166126286E-03  1.02096180600998E-01
 cg2d: Sum(rhs),rhsMax =  -1.01484102176240E-03  1.02111937000528E-01
 cg2d: Sum(rhs),rhsMax =  -1.01490014326622E-03  1.02127696690072E-01
 cg2d: Sum(rhs),rhsMax =  -1.01495902347368E-03  1.02143459684156E-01
(PID.TID 0000.0001)      cg2d_init_res =   2.65433608592232E-03
(PID.TID 0000.0001)      cg2d_iters(min,last) =      -1      86
(PID.TID 0000.0001)      cg2d_last_res =   9.79390213116328E-08
(PID.TID 0000.0001) // =======================================================
(PID.TID 0000.0001) // Begin MONITOR dynamic field statistics
(PID.TID 0000.0001) // =======================================================
(PID.TID 0000.0001) %MON time_tsnumber                =                  3744
(PID.TID 0000.0001) %MON time_secondsf                =   4.4928000000000E+06
(PID.TID 0000.0001) %MON dynstat_eta_max              =   1.0433602868372E-01
(PID.TID 0000.0001) %MON dynstat_eta_min              =  -4.9836341780200E-02
(PID.TID 0000.0001) %MON dynstat_eta_mean             =   5.1820142955817E-07
(PID.TID 0000.0001) %MON dynstat_eta_sd               =   4.4902780823417E-02
(PID.TID 0000.0001) %MON dynstat_eta_del2             =   1.5854821681812E-05
(PID.TID 0000.0001) %MON dynstat_uvel_max             =   7.5393420001804E-02
(PID.TID 0000.0001) %MON dynstat_uvel_min             =  -2.9872141741310E-02
(PID.TID 0000.0001) %MON dynstat_uvel_mean            =  -4.5497729179749E-08
(PID.TID 0000.0001) %MON dynstat_uvel_sd              =   2.0285469721112E-02
(PID.TID 0000.0001) %MON dynstat_uvel_del2            =   3.5046149523974E-05
(PID.TID 0000.0001) %MON dynstat_vvel_max             =   6.0096093119597E-02
(PID.TID 0000.0001) %MON dynstat_vvel_min             =  -4.3853595225689E-02
(PID.TID 0000.0001) %MON dynstat_vvel_mean            =   2.2809984802904E-07
(PID.TID 0000.0001) %MON dynstat_vvel_sd              =   1.8317279724880E-02
(PID.TID 0000.0001) %MON dynstat_vvel_del2            =   4.1331626698152E-05
(PID.TID 0000.0001) %MON dynstat_wvel_max             =   2.4406471634575E-08
(PID.TID 0000.0001) %MON dynstat_wvel_min             =  -1.3816652748792E-08
(PID.TID 0000.0001) %MON dynstat_wvel_mean            =   8.1038251664722E-21
(PID.TID 0000.0001) %MON dynstat_wvel_sd              =   9.5779901698157E-09
(PID.TID 0000.0001) %MON dynstat_wvel_del2            =   4.5882410499835E-12
(PID.TID 0000.0001) %MON dynstat_theta_max            =   2.0000000000000E+01
(PID.TID 0000.0001) %MON dynstat_theta_min            =   2.0000000000000E+01
(PID.TID 0000.0001) %MON dynstat_theta_mean           =   2.0000000000000E+01
(PID.TID 0000.0001) %MON dynstat_theta_sd             =   3.8014036363165E-13
(PID.TID 0000.0001) %MON dynstat_theta_del2           =   0.0000000000000E+00
(PID.TID 0000.0001) %MON dynstat_salt_max             =   3.0000000000000E+01
(PID.TID 0000.0001) %MON dynstat_salt_min             =   3.0000000000000E+01
(PID.TID 0000.0001) %MON dynstat_salt_mean            =   2.9999999999999E+01
(PID.TID 0000.0001) %MON dynstat_salt_sd              =   5.5777604757167E-13
(PID.TID 0000.0001) %MON dynstat_salt_del2            =   0.0000000000000E+00
(PID.TID 0000.0001) %MON trAdv_CFL_u_max              =   4.5212394406710E-03
(PID.TID 0000.0001) %MON trAdv_CFL_v_max              =   3.6044772653953E-03
(PID.TID 0000.0001) %MON trAdv_CFL_w_max              =   6.4718117113874E-09
(PID.TID 0000.0001) %MON advcfl_uvel_max              =   4.5236052001083E-03
(PID.TID 0000.0001) %MON advcfl_vvel_max              =   3.6057655871758E-03
(PID.TID 0000.0001) %MON advcfl_wvel_max              =   1.1715106384596E-08
(PID.TID 0000.0001) %MON advcfl_W_hf_max              =   0.0000000000000E+00
(PID.TID 0000.0001) %MON pe_b_mean                    =   2.0671394192445E-06
(PID.TID 0000.0001) %MON ke_max                       =   2.8413041462693E-03
(PID.TID 0000.0001) %MON ke_mean                      =   3.6664314945600E-04
(PID.TID 0000.0001) %MON ke_vol                       =   6.8893493896486E+15
(PID.TID 0000.0001) %MON vort_r_min                   =  -7.2890025804153E-07
(PID.TID 0000.0001) %MON vort_r_max                   =   1.6335308316387E-06
(PID.TID 0000.0001) %MON vort_a_mean                  =   1.0600000000000E-04
(PID.TID 0000.0001) %MON vort_a_sd                    =   3.5326934625514E-06
(PID.TID 0000.0001) %MON vort_p_mean                  =   1.1652272308690E-04
(PID.TID 0000.0001) %MON vort_p_sd                    =   4.1751858361876E-05
(PID.TID 0000.0001) %MON surfExpan_theta_mean         =   1.6214079955211E-19
(PID.TID 0000.0001) %MON surfExpan_salt_mean          =   2.4322667336997E-19
(PID.TID 0000.0001) // =======================================================
(PID.TID 0000.0001) // End MONITOR dynamic field statistics
(PID.TID 0000.0001) // =======================================================
 cg2d: Sum(rhs),rhsMax =  -1.01501766135281E-03  1.02159225997298E-01
 cg2d: Sum(rhs),rhsMax =  -1.01507605479849E-03  1.02174995643993E-01
 cg2d: Sum(rhs),rhsMax =  -1.01513420270389E-03  1.02190768638723E-01
 cg2d: Sum(rhs),rhsMax =  -1.01519210287623E-03  1.02206544995955E-01
 cg2d: Sum(rhs),rhsMax =  -1.01524975421514E-03  1.02222324730141E-01
 cg2d: Sum(rhs),rhsMax =  -1.01530715454901E-03  1.02238107855713E-01
 cg2d: Sum(rhs),rhsMax =  -1.01536430332757E-03  1.02253894387091E-01
 cg2d: Sum(rhs),rhsMax =  -1.01542119845918E-03  1.02269684338680E-01
 cg2d: Sum(rhs),rhsMax =  -1.01547783852588E-03  1.02285477724864E-01
 cg2d: Sum(rhs),rhsMax =  -1.01553422215840E-03  1.02301274560017E-01
 cg2d: Sum(rhs),rhsMax =  -1.01559034797136E-03  1.02317074858488E-01
 cg2d: Sum(rhs),rhsMax =  -1.01564621473891E-03  1.02332878634622E-01
 cg2d: Sum(rhs),rhsMax =  -1.01570182077246E-03  1.02348685902738E-01
 cg2d: Sum(rhs),rhsMax =  -1.01575716578167E-03  1.02364496677147E-01
 cg2d: Sum(rhs),rhsMax =  -1.01581224777733E-03  1.02380310972134E-01
 cg2d: Sum(rhs),rhsMax =  -1.01586706572150E-03  1.02396128801977E-01
 cg2d: Sum(rhs),rhsMax =  -1.01592161812838E-03  1.02411950180931E-01
 cg2d: Sum(rhs),rhsMax =  -1.01597590445312E-03  1.02427775123241E-01
 cg2d: Sum(rhs),rhsMax =  -1.01602992334632E-03  1.02443603643133E-01
 cg2d: Sum(rhs),rhsMax =  -1.01608367375125E-03  1.02459435754810E-01
 cg2d: Sum(rhs),rhsMax =  -1.01613715459377E-03  1.02475271472471E-01
 cg2d: Sum(rhs),rhsMax =  -1.01619036513670E-03  1.02491110810292E-01
 cg2d: Sum(rhs),rhsMax =  -1.01624330343855E-03  1.02506953782429E-01
 cg2d: Sum(rhs),rhsMax =  -1.01629596976423E-03  1.02522800403031E-01
 cg2d: Sum(rhs),rhsMax =  -1.01634836231358E-03  1.02538650686220E-01
 cg2d: Sum(rhs),rhsMax =  -1.01640048067287E-03  1.02554504646111E-01
 cg2d: Sum(rhs),rhsMax =  -1.01645232367914E-03  1.02570362296795E-01
 cg2d: Sum(rhs),rhsMax =  -1.01650389072373E-03  1.02586223652349E-01
 cg2d: Sum(rhs),rhsMax =  -1.01655518076363E-03  1.02602088726840E-01
 cg2d: Sum(rhs),rhsMax =  -1.01660619361310E-03  1.02617957534303E-01
 cg2d: Sum(rhs),rhsMax =  -1.01665692734380E-03  1.02633830088772E-01
 cg2d: Sum(rhs),rhsMax =  -1.01670738228297E-03  1.02649706404257E-01
 cg2d: Sum(rhs),rhsMax =  -1.01675755733635E-03  1.02665586494752E-01
 cg2d: Sum(rhs),rhsMax =  -1.01680745154932E-03  1.02681470374233E-01
 cg2d: Sum(rhs),rhsMax =  -1.01685706477490E-03  1.02697358056662E-01
 cg2d: Sum(rhs),rhsMax =  -1.01690639624773E-03  1.02713249555982E-01
 cg2d: Sum(rhs),rhsMax =  -1.01695544496063E-03  1.02729144886121E-01
 cg2d: Sum(rhs),rhsMax =  -1.01700421079282E-03  1.02745044060988E-01
 cg2d: Sum(rhs),rhsMax =  -1.01705269306328E-03  1.02760947094477E-01
 cg2d: Sum(rhs),rhsMax =  -1.01710089071272E-03  1.02776854000463E-01
 cg2d: Sum(rhs),rhsMax =  -1.01714880382956E-03  1.02792764792806E-01
 cg2d: Sum(rhs),rhsMax =  -1.01719643186927E-03  1.02808679485346E-01
 cg2d: Sum(rhs),rhsMax =  -1.01724377401733E-03  1.02824598091915E-01
 cg2d: Sum(rhs),rhsMax =  -1.01729083006149E-03  1.02840520626313E-01
 cg2d: Sum(rhs),rhsMax =  -1.01733759951278E-03  1.02856447102336E-01
 cg2d: Sum(rhs),rhsMax =  -1.01738408182989E-03  1.02872377533756E-01
 cg2d: Sum(rhs),rhsMax =  -1.01743027685412E-03  1.02888311934330E-01
 cg2d: Sum(rhs),rhsMax =  -1.01746880477434E-03  1.02904996641181E-01
 cg2d: Sum(rhs),rhsMax =  -1.01750693298188E-03  1.02921696795689E-01
 cg2d: Sum(rhs),rhsMax =  -1.01754477491741E-03  1.02938400915048E-01
 cg2d: Sum(rhs),rhsMax =  -1.01758233025081E-03  1.02955109012389E-01
 cg2d: Sum(rhs),rhsMax =  -1.01761959896960E-03  1.02971821100812E-01
 cg2d: Sum(rhs),rhsMax =  -1.01765658042356E-03  1.02988537193409E-01
 cg2d: Sum(rhs),rhsMax =  -1.01769327448227E-03  1.03005257303256E-01
 cg2d: Sum(rhs),rhsMax =  -1.01772968084817E-03  1.03021981443398E-01
 cg2d: Sum(rhs),rhsMax =  -1.01776579969607E-03  1.03038709626875E-01
 cg2d: Sum(rhs),rhsMax =  -1.01780163033815E-03  1.03055441866708E-01
 cg2d: Sum(rhs),rhsMax =  -1.01783717284373E-03  1.03072178175894E-01
 cg2d: Sum(rhs),rhsMax =  -1.01787242675521E-03  1.03088918567416E-01
 cg2d: Sum(rhs),rhsMax =  -1.01790739219954E-03  1.03105663054239E-01
 cg2d: Sum(rhs),rhsMax =  -1.01794206913881E-03  1.03122411649307E-01
 cg2d: Sum(rhs),rhsMax =  -1.01797645701861E-03  1.03139164365551E-01
 cg2d: Sum(rhs),rhsMax =  -1.01801055613217E-03  1.03155921215877E-01
 cg2d: Sum(rhs),rhsMax =  -1.01804436676147E-03  1.03172682213184E-01
 cg2d: Sum(rhs),rhsMax =  -1.01807788806730E-03  1.03189447370337E-01
 cg2d: Sum(rhs),rhsMax =  -1.01811112021614E-03  1.03206216700201E-01
 cg2d: Sum(rhs),rhsMax =  -1.01814406306447E-03  1.03222990215607E-01
 cg2d: Sum(rhs),rhsMax =  -1.01817671678018E-03  1.03239767929379E-01
 cg2d: Sum(rhs),rhsMax =  -1.01820908133302E-03  1.03256549854318E-01
 cg2d: Sum(rhs),rhsMax =  -1.01824115690234E-03  1.03273336003205E-01
 cg2d: Sum(rhs),rhsMax =  -1.01827294293336E-03  1.03290126388807E-01
 cg2d: Sum(rhs),rhsMax =  -1.01830443995294E-03  1.03306921023868E-01
(PID.TID 0000.0001)      cg2d_init_res =   2.62017499755347E-03
(PID.TID 0000.0001)      cg2d_iters(min,last) =      -1      86
(PID.TID 0000.0001)      cg2d_last_res =   9.48539279544874E-08
(PID.TID 0000.0001) // =======================================================
(PID.TID 0000.0001) // Begin MONITOR dynamic field statistics
(PID.TID 0000.0001) // =======================================================
(PID.TID 0000.0001) %MON time_tsnumber                =                  3816
(PID.TID 0000.0001) %MON time_secondsf                =   4.5792000000000E+06
(PID.TID 0000.0001) %MON dynstat_eta_max              =   1.0606791202792E-01
(PID.TID 0000.0001) %MON dynstat_eta_min              =  -5.0401820572038E-02
(PID.TID 0000.0001) %MON dynstat_eta_mean             =   5.2582156593088E-07
(PID.TID 0000.0001) %MON dynstat_eta_sd               =   4.5617815080799E-02
(PID.TID 0000.0001) %MON dynstat_eta_del2             =   1.6088773340741E-05
(PID.TID 0000.0001) %MON dynstat_uvel_max             =   7.6130930795690E-02
(PID.TID 0000.0001) %MON dynstat_uvel_min             =  -3.0573936554716E-02
(PID.TID 0000.0001) %MON dynstat_uvel_mean            =  -4.7677293444900E-08
(PID.TID 0000.0001) %MON dynstat_uvel_sd              =   2.0542066592695E-02
(PID.TID 0000.0001) %MON dynstat_uvel_del2            =   3.5511281392819E-05
(PID.TID 0000.0001) %MON dynstat_vvel_max             =   6.1646410753923E-02
(PID.TID 0000.0001) %MON dynstat_vvel_min             =  -4.4859782521857E-02
(PID.TID 0000.0001) %MON dynstat_vvel_mean            =   2.2763319090378E-07
(PID.TID 0000.0001) %MON dynstat_vvel_sd              =   1.8585094405036E-02
(PID.TID 0000.0001) %MON dynstat_vvel_del2            =   4.1884250893898E-05
(PID.TID 0000.0001) %MON dynstat_wvel_max             =   2.4222865434131E-08
(PID.TID 0000.0001) %MON dynstat_wvel_min             =  -1.3708517756895E-08
(PID.TID 0000.0001) %MON dynstat_wvel_mean            =   1.0364955313788E-23
(PID.TID 0000.0001) %MON dynstat_wvel_sd              =   9.5115592255931E-09
(PID.TID 0000.0001) %MON dynstat_wvel_del2            =   4.5633429032126E-12
(PID.TID 0000.0001) %MON dynstat_theta_max            =   2.0000000000000E+01
(PID.TID 0000.0001) %MON dynstat_theta_min            =   2.0000000000000E+01
(PID.TID 0000.0001) %MON dynstat_theta_mean           =   2.0000000000000E+01
(PID.TID 0000.0001) %MON dynstat_theta_sd             =   3.8014036363165E-13
(PID.TID 0000.0001) %MON dynstat_theta_del2           =   0.0000000000000E+00
(PID.TID 0000.0001) %MON dynstat_salt_max             =   3.0000000000000E+01
(PID.TID 0000.0001) %MON dynstat_salt_min             =   3.0000000000000E+01
(PID.TID 0000.0001) %MON dynstat_salt_mean            =   2.9999999999999E+01
(PID.TID 0000.0001) %MON dynstat_salt_sd              =   5.5777604757167E-13
(PID.TID 0000.0001) %MON dynstat_salt_del2            =   0.0000000000000E+00
(PID.TID 0000.0001) %MON trAdv_CFL_u_max              =   4.5654869216565E-03
(PID.TID 0000.0001) %MON trAdv_CFL_v_max              =   3.6974922853984E-03
(PID.TID 0000.0001) %MON trAdv_CFL_w_max              =   6.4232391192011E-09
(PID.TID 0000.0001) %MON advcfl_uvel_max              =   4.5678558477414E-03
(PID.TID 0000.0001) %MON advcfl_vvel_max              =   3.6987846452354E-03
(PID.TID 0000.0001) %MON advcfl_wvel_max              =   1.1626975408383E-08
(PID.TID 0000.0001) %MON advcfl_W_hf_max              =   0.0000000000000E+00
(PID.TID 0000.0001) %MON pe_b_mean                    =   2.1334980700199E-06
(PID.TID 0000.0001) %MON ke_max                       =   2.8975331513665E-03
(PID.TID 0000.0001) %MON ke_mean                      =   3.7663556836502E-04
(PID.TID 0000.0001) %MON ke_vol                       =   6.8893493896486E+15
(PID.TID 0000.0001) %MON vort_r_min                   =  -7.4289020644246E-07
(PID.TID 0000.0001) %MON vort_r_max                   =   1.6715189631917E-06
(PID.TID 0000.0001) %MON vort_a_mean                  =   1.0600000000000E-04
(PID.TID 0000.0001) %MON vort_a_sd                    =   3.5330748365977E-06
(PID.TID 0000.0001) %MON vort_p_mean                  =   1.1652272308690E-04
(PID.TID 0000.0001) %MON vort_p_sd                    =   4.1752989503387E-05
(PID.TID 0000.0001) %MON surfExpan_theta_mean         =   2.3495279795801E-22
(PID.TID 0000.0001) %MON surfExpan_salt_mean          =   3.3979732607905E-22
(PID.TID 0000.0001) // =======================================================
(PID.TID 0000.0001) // End MONITOR dynamic field statistics
(PID.TID 0000.0001) // =======================================================
 cg2d: Sum(rhs),rhsMax =  -1.01833564764063E-03  1.03323719921117E-01
 cg2d: Sum(rhs),rhsMax =  -1.01836656621711E-03  1.03340523093263E-01
 cg2d: Sum(rhs),rhsMax =  -1.01839719560606E-03  1.03357330553001E-01
 cg2d: Sum(rhs),rhsMax =  -1.01842753608704E-03  1.03374142313001E-01
 cg2d: Sum(rhs),rhsMax =  -1.01845758749099E-03  1.03390958385919E-01
 cg2d: Sum(rhs),rhsMax =  -1.01848735032430E-03  1.03407778784390E-01
 cg2d: Sum(rhs),rhsMax =  -1.01851682380302E-03  1.03424603521032E-01
 cg2d: Sum(rhs),rhsMax =  -1.01854600853113E-03  1.03441432608442E-01
 cg2d: Sum(rhs),rhsMax =  -1.01857490464741E-03  1.03458266059204E-01
 cg2d: Sum(rhs),rhsMax =  -1.01860351227163E-03  1.03475103885878E-01
 cg2d: Sum(rhs),rhsMax =  -1.01863183129735E-03  1.03491946101007E-01
 cg2d: Sum(rhs),rhsMax =  -1.01873934691159E-03  1.03508792496952E-01
 cg2d: Sum(rhs),rhsMax =  -1.01884647087955E-03  1.03525643524519E-01
 cg2d: Sum(rhs),rhsMax =  -1.01895323947348E-03  1.03542498977367E-01
 cg2d: Sum(rhs),rhsMax =  -1.01905963903992E-03  1.03559358866068E-01
 cg2d: Sum(rhs),rhsMax =  -1.01916566884157E-03  1.03576223208296E-01
 cg2d: Sum(rhs),rhsMax =  -1.01927132880633E-03  1.03593092015724E-01
 cg2d: Sum(rhs),rhsMax =  -1.01937661911211E-03  1.03609965298954E-01
 cg2d: Sum(rhs),rhsMax =  -1.01948153984019E-03  1.03626843069473E-01
 cg2d: Sum(rhs),rhsMax =  -1.01958609023166E-03  1.03643725339745E-01
 cg2d: Sum(rhs),rhsMax =  -1.01969027059327E-03  1.03660612122574E-01
 cg2d: Sum(rhs),rhsMax =  -1.01979408020941E-03  1.03677503430664E-01
 cg2d: Sum(rhs),rhsMax =  -1.01989751879809E-03  1.03694399276470E-01
 cg2d: Sum(rhs),rhsMax =  -1.02000058627620E-03  1.03711299672258E-01
 cg2d: Sum(rhs),rhsMax =  -1.02010328209977E-03  1.03728204630214E-01
 cg2d: Sum(rhs),rhsMax =  -1.02020560659796E-03  1.03745114162518E-01
 cg2d: Sum(rhs),rhsMax =  -1.02030755874879E-03  1.03762028281373E-01
 cg2d: Sum(rhs),rhsMax =  -1.02040913910851E-03  1.03778946999006E-01
 cg2d: Sum(rhs),rhsMax =  -1.02051034688566E-03  1.03795870327627E-01
 cg2d: Sum(rhs),rhsMax =  -1.02061118209107E-03  1.03812798279435E-01
 cg2d: Sum(rhs),rhsMax =  -1.02071164456762E-03  1.03829730866607E-01
 cg2d: Sum(rhs),rhsMax =  -1.02081173386432E-03  1.03846668101279E-01
 cg2d: Sum(rhs),rhsMax =  -1.02091145007539E-03  1.03863609995579E-01
 cg2d: Sum(rhs),rhsMax =  -1.02101079258027E-03  1.03880556561610E-01
 cg2d: Sum(rhs),rhsMax =  -1.02110976127001E-03  1.03897507811458E-01
 cg2d: Sum(rhs),rhsMax =  -1.02120835622562E-03  1.03914463757198E-01
 cg2d: Sum(rhs),rhsMax =  -1.02130657687797E-03  1.03931424410873E-01
 cg2d: Sum(rhs),rhsMax =  -1.02140442291104E-03  1.03948389784519E-01
 cg2d: Sum(rhs),rhsMax =  -1.02150189475225E-03  1.03965359890142E-01
 cg2d: Sum(rhs),rhsMax =  -1.02159899151828E-03  1.03982334739732E-01
 cg2d: Sum(rhs),rhsMax =  -1.02169571284786E-03  1.03999314345254E-01
 cg2d: Sum(rhs),rhsMax =  -1.02179205942699E-03  1.04016298718657E-01
 cg2d: Sum(rhs),rhsMax =  -1.02188802992379E-03  1.04033287871875E-01
 cg2d: Sum(rhs),rhsMax =  -1.02198362456762E-03  1.04050281816819E-01
 cg2d: Sum(rhs),rhsMax =  -1.02207884334257E-03  1.04067280565379E-01
 cg2d: Sum(rhs),rhsMax =  -1.02217368574966E-03  1.04084284129429E-01
 cg2d: Sum(rhs),rhsMax =  -1.02226815146468E-03  1.04101292520824E-01
 cg2d: Sum(rhs),rhsMax =  -1.02236224032749E-03  1.04118305751397E-01
 cg2d: Sum(rhs),rhsMax =  -1.02245595234293E-03  1.04135323832957E-01
 cg2d: Sum(rhs),rhsMax =  -1.02254928663184E-03  1.04152346777301E-01
 cg2d: Sum(rhs),rhsMax =  -1.02264224337578E-03  1.04169374596199E-01
 cg2d: Sum(rhs),rhsMax =  -1.02273482246058E-03  1.04186407301407E-01
 cg2d: Sum(rhs),rhsMax =  -1.02282702279978E-03  1.04203444904659E-01
 cg2d: Sum(rhs),rhsMax =  -1.02291884456402E-03  1.04220487417664E-01
 cg2d: Sum(rhs),rhsMax =  -1.02301028811628E-03  1.04237534852116E-01
 cg2d: Sum(rhs),rhsMax =  -1.02310135224284E-03  1.04254587219698E-01
 cg2d: Sum(rhs),rhsMax =  -1.02319203692307E-03  1.04271644532054E-01
 cg2d: Sum(rhs),rhsMax =  -1.02328234162304E-03  1.04288706800821E-01
 cg2d: Sum(rhs),rhsMax =  -1.02337226638691E-03  1.04305774037616E-01
 cg2d: Sum(rhs),rhsMax =  -1.02346181059439E-03  1.04322846254028E-01
 cg2d: Sum(rhs),rhsMax =  -1.02355097402454E-03  1.04339923461635E-01
 cg2d: Sum(rhs),rhsMax =  -1.02363975658432E-03  1.04357005671988E-01
 cg2d: Sum(rhs),rhsMax =  -1.02372815726025E-03  1.04374092896621E-01
 cg2d: Sum(rhs),rhsMax =  -1.02381617609134E-03  1.04391185147045E-01
 cg2d: Sum(rhs),rhsMax =  -1.02390381272834E-03  1.04408282434760E-01
 cg2d: Sum(rhs),rhsMax =  -1.02399106690477E-03  1.04425384771231E-01
 cg2d: Sum(rhs),rhsMax =  -1.02407793783146E-03  1.04442492167917E-01
 cg2d: Sum(rhs),rhsMax =  -1.02416442531673E-03  1.04459604636243E-01
 cg2d: Sum(rhs),rhsMax =  -1.02425052874539E-03  1.04476722187628E-01
 cg2d: Sum(rhs),rhsMax =  -1.02433624796896E-03  1.04493844833459E-01
 cg2d: Sum(rhs),rhsMax =  -1.02442158250290E-03  1.04510972585109E-01
 cg2d: Sum(rhs),rhsMax =  -1.02450653159094E-03  1.04528105453931E-01
(PID.TID 0000.0001)      cg2d_init_res =   2.58649694043044E-03
(PID.TID 0000.0001)      cg2d_iters(min,last) =      -1      85
(PID.TID 0000.0001)      cg2d_last_res =   9.64364699995742E-08
(PID.TID 0000.0001) // =======================================================
(PID.TID 0000.0001) // Begin MONITOR dynamic field statistics
(PID.TID 0000.0001) // =======================================================
(PID.TID 0000.0001) %MON time_tsnumber                =                  3888
(PID.TID 0000.0001) %MON time_secondsf                =   4.6656000000000E+06
(PID.TID 0000.0001) %MON dynstat_eta_max              =   1.0776131514846E-01
(PID.TID 0000.0001) %MON dynstat_eta_min              =  -5.0956384457463E-02
(PID.TID 0000.0001) %MON dynstat_eta_mean             =   5.3530619461587E-07
(PID.TID 0000.0001) %MON dynstat_eta_sd               =   4.6329940066220E-02
(PID.TID 0000.0001) %MON dynstat_eta_del2             =   1.6317964241011E-05
(PID.TID 0000.0001) %MON dynstat_uvel_max             =   7.6853839218751E-02
(PID.TID 0000.0001) %MON dynstat_uvel_min             =  -3.1267400530790E-02
(PID.TID 0000.0001) %MON dynstat_uvel_mean            =  -5.0975197948708E-08
(PID.TID 0000.0001) %MON dynstat_uvel_sd              =   2.0796501866671E-02
(PID.TID 0000.0001) %MON dynstat_uvel_del2            =   3.5972471543858E-05
(PID.TID 0000.0001) %MON dynstat_vvel_max             =   6.3190126960177E-02
(PID.TID 0000.0001) %MON dynstat_vvel_min             =  -4.5853205729664E-02
(PID.TID 0000.0001) %MON dynstat_vvel_mean            =   2.2647880975061E-07
(PID.TID 0000.0001) %MON dynstat_vvel_sd              =   1.8851313000618E-02
(PID.TID 0000.0001) %MON dynstat_vvel_del2            =   4.2428822651718E-05
(PID.TID 0000.0001) %MON dynstat_wvel_max             =   2.4028302300721E-08
(PID.TID 0000.0001) %MON dynstat_wvel_min             =  -1.3573270711349E-08
(PID.TID 0000.0001) %MON dynstat_wvel_mean            =  -2.0869230057643E-21
(PID.TID 0000.0001) %MON dynstat_wvel_sd              =   9.4391359413393E-09
(PID.TID 0000.0001) %MON dynstat_wvel_del2            =   4.5366733261603E-12
(PID.TID 0000.0001) %MON dynstat_theta_max            =   2.0000000000000E+01
(PID.TID 0000.0001) %MON dynstat_theta_min            =   2.0000000000000E+01
(PID.TID 0000.0001) %MON dynstat_theta_mean           =   2.0000000000000E+01
(PID.TID 0000.0001) %MON dynstat_theta_sd             =   3.8014036363165E-13
(PID.TID 0000.0001) %MON dynstat_theta_del2           =   0.0000000000000E+00
(PID.TID 0000.0001) %MON dynstat_salt_max             =   3.0000000000000E+01
(PID.TID 0000.0001) %MON dynstat_salt_min             =   3.0000000000000E+01
(PID.TID 0000.0001) %MON dynstat_salt_mean            =   2.9999999999999E+01
(PID.TID 0000.0001) %MON dynstat_salt_sd              =   5.5777604757167E-13
(PID.TID 0000.0001) %MON dynstat_salt_del2            =   0.0000000000000E+00
(PID.TID 0000.0001) %MON trAdv_CFL_u_max              =   4.6088551858228E-03
(PID.TID 0000.0001) %MON trAdv_CFL_v_max              =   3.7901300544850E-03
(PID.TID 0000.0001) %MON trAdv_CFL_w_max              =   6.3855908409132E-09
(PID.TID 0000.0001) %MON advcfl_uvel_max              =   4.6112303531251E-03
(PID.TID 0000.0001) %MON advcfl_vvel_max              =   3.7914076176106E-03
(PID.TID 0000.0001) %MON advcfl_wvel_max              =   1.1533585104346E-08
(PID.TID 0000.0001) %MON advcfl_W_hf_max              =   0.0000000000000E+00
(PID.TID 0000.0001) %MON pe_b_mean                    =   2.2006286884044E-06
(PID.TID 0000.0001) %MON ke_max                       =   2.9531096711528E-03
(PID.TID 0000.0001) %MON ke_mean                      =   3.8668935868653E-04
(PID.TID 0000.0001) %MON ke_vol                       =   6.8893493896486E+15
(PID.TID 0000.0001) %MON vort_r_min                   =  -7.5604364645439E-07
(PID.TID 0000.0001) %MON vort_r_max                   =   1.7068148842166E-06
(PID.TID 0000.0001) %MON vort_a_mean                  =   1.0600000000000E-04
(PID.TID 0000.0001) %MON vort_a_sd                    =   3.5334535506909E-06
(PID.TID 0000.0001) %MON vort_p_mean                  =   1.1652272308690E-04
(PID.TID 0000.0001) %MON vort_p_sd                    =   4.1754073441908E-05
(PID.TID 0000.0001) %MON surfExpan_theta_mean         =  -4.1724964224462E-20
(PID.TID 0000.0001) %MON surfExpan_salt_mean          =  -6.2581761994807E-20
(PID.TID 0000.0001) // =======================================================
(PID.TID 0000.0001) // End MONITOR dynamic field statistics
(PID.TID 0000.0001) // =======================================================
 cg2d: Sum(rhs),rhsMax =  -1.02459109501106E-03  1.04545243451251E-01
 cg2d: Sum(rhs),rhsMax =  -1.02467527217125E-03  1.04562386588384E-01
 cg2d: Sum(rhs),rhsMax =  -1.02475906284532E-03  1.04579534876617E-01
 cg2d: Sum(rhs),rhsMax =  -1.02484246602512E-03  1.04596688327218E-01
 cg2d: Sum(rhs),rhsMax =  -1.02492548171733E-03  1.04613846951435E-01
 cg2d: Sum(rhs),rhsMax =  -1.02500810911572E-03  1.04631010760498E-01
 cg2d: Sum(rhs),rhsMax =  -1.02509034796647E-03  1.04648179765616E-01
 cg2d: Sum(rhs),rhsMax =  -1.02517219713942E-03  1.04665353977971E-01
 cg2d: Sum(rhs),rhsMax =  -1.02525365664284E-03  1.04682533408733E-01
 cg2d: Sum(rhs),rhsMax =  -1.02533472587761E-03  1.04699718069047E-01
 cg2d: Sum(rhs),rhsMax =  -1.02541540361192E-03  1.04716907970036E-01
 cg2d: Sum(rhs),rhsMax =  -1.02549569009333E-03  1.04734103122805E-01
 cg2d: Sum(rhs),rhsMax =  -1.02557558441175E-03  1.04751303538437E-01
 cg2d: Sum(rhs),rhsMax =  -1.02565508596681E-03  1.04768509227996E-01
 cg2d: Sum(rhs),rhsMax =  -1.02580802404203E-03  1.04785720035095E-01
 cg2d: Sum(rhs),rhsMax =  -1.02596045633995E-03  1.04802936292788E-01
 cg2d: Sum(rhs),rhsMax =  -1.02611235349160E-03  1.04820157868641E-01
 cg2d: Sum(rhs),rhsMax =  -1.02626372028908E-03  1.04837384759999E-01
 cg2d: Sum(rhs),rhsMax =  -1.02641455499650E-03  1.04854616982076E-01
 cg2d: Sum(rhs),rhsMax =  -1.02656485763415E-03  1.04871854545608E-01
 cg2d: Sum(rhs),rhsMax =  -1.02671462681547E-03  1.04889097460058E-01
 cg2d: Sum(rhs),rhsMax =  -1.02686386181074E-03  1.04906345735563E-01
 cg2d: Sum(rhs),rhsMax =  -1.02701256079651E-03  1.04923599383025E-01
 cg2d: Sum(rhs),rhsMax =  -1.02716072278234E-03  1.04940858413654E-01
 cg2d: Sum(rhs),rhsMax =  -1.02730834576152E-03  1.04958122838578E-01
 cg2d: Sum(rhs),rhsMax =  -1.02745542897857E-03  1.04975392668716E-01
 cg2d: Sum(rhs),rhsMax =  -1.02760197070571E-03  1.04992667914836E-01
 cg2d: Sum(rhs),rhsMax =  -1.02774796949774E-03  1.05009948587628E-01
 cg2d: Sum(rhs),rhsMax =  -1.02789342406758E-03  1.05027234697779E-01
 cg2d: Sum(rhs),rhsMax =  -1.02803833306509E-03  1.05044526255986E-01
 cg2d: Sum(rhs),rhsMax =  -1.02818269467641E-03  1.05061823272961E-01
 cg2d: Sum(rhs),rhsMax =  -1.02832650801804E-03  1.05079125759395E-01
 cg2d: Sum(rhs),rhsMax =  -1.02846977128134E-03  1.05096433725966E-01
 cg2d: Sum(rhs),rhsMax =  -1.02861248276929E-03  1.05113747183320E-01
 cg2d: Sum(rhs),rhsMax =  -1.02875464122271E-03  1.05131066142075E-01
 cg2d: Sum(rhs),rhsMax =  -1.02889624550780E-03  1.05148390612827E-01
 cg2d: Sum(rhs),rhsMax =  -1.02903729343983E-03  1.05165720606151E-01
 cg2d: Sum(rhs),rhsMax =  -1.02917778415623E-03  1.05183056132601E-01
 cg2d: Sum(rhs),rhsMax =  -1.02931771549728E-03  1.05200397202721E-01
 cg2d: Sum(rhs),rhsMax =  -1.02945708649920E-03  1.05217743827020E-01
 cg2d: Sum(rhs),rhsMax =  -1.02959589542276E-03  1.05235096015993E-01
 cg2d: Sum(rhs),rhsMax =  -1.02973414020670E-03  1.05252453780110E-01
 cg2d: Sum(rhs),rhsMax =  -1.02987181979857E-03  1.05269817129816E-01
 cg2d: Sum(rhs),rhsMax =  -1.03000893273469E-03  1.05287186075540E-01
 cg2d: Sum(rhs),rhsMax =  -1.03014547707997E-03  1.05304560627681E-01
 cg2d: Sum(rhs),rhsMax =  -1.03028145149446E-03  1.05321940796628E-01
 cg2d: Sum(rhs),rhsMax =  -1.03041685413466E-03  1.05339326592743E-01
 cg2d: Sum(rhs),rhsMax =  -1.03055168354693E-03  1.05356718026361E-01
 cg2d: Sum(rhs),rhsMax =  -1.03068593780859E-03  1.05374115107809E-01
 cg2d: Sum(rhs),rhsMax =  -1.03081961587417E-03  1.05391517847378E-01
 cg2d: Sum(rhs),rhsMax =  -1.03095271557664E-03  1.05408926255349E-01
 cg2d: Sum(rhs),rhsMax =  -1.03108523573914E-03  1.05426340341972E-01
 cg2d: Sum(rhs),rhsMax =  -1.03121717400483E-03  1.05443760117479E-01
 cg2d: Sum(rhs),rhsMax =  -1.03134852915342E-03  1.05461185592082E-01
 cg2d: Sum(rhs),rhsMax =  -1.03147929968561E-03  1.05478616775969E-01
 cg2d: Sum(rhs),rhsMax =  -1.03160948348555E-03  1.05496053679302E-01
 cg2d: Sum(rhs),rhsMax =  -1.03173907903581E-03  1.05513496312226E-01
 cg2d: Sum(rhs),rhsMax =  -1.03186808498104E-03  1.05530944684869E-01
 cg2d: Sum(rhs),rhsMax =  -1.03199649926666E-03  1.05548398807324E-01
 cg2d: Sum(rhs),rhsMax =  -1.03212432017957E-03  1.05565858689677E-01
 cg2d: Sum(rhs),rhsMax =  -1.03225154568589E-03  1.05583324341978E-01
 cg2d: Sum(rhs),rhsMax =  -1.03237817484305E-03  1.05600795774266E-01
 cg2d: Sum(rhs),rhsMax =  -1.03250420519704E-03  1.05618272996552E-01
 cg2d: Sum(rhs),rhsMax =  -1.03262963551140E-03  1.05635756018828E-01
 cg2d: Sum(rhs),rhsMax =  -1.03275446360270E-03  1.05653244851059E-01
 cg2d: Sum(rhs),rhsMax =  -1.03287868805746E-03  1.05670739503192E-01
 cg2d: Sum(rhs),rhsMax =  -1.03300230715254E-03  1.05688239985152E-01
 cg2d: Sum(rhs),rhsMax =  -1.03312531911958E-03  1.05705746306842E-01
 cg2d: Sum(rhs),rhsMax =  -1.03324772203233E-03  1.05723258478142E-01
 cg2d: Sum(rhs),rhsMax =  -1.03336951405717E-03  1.05740776508905E-01
 cg2d: Sum(rhs),rhsMax =  -1.03349069334955E-03  1.05758300408970E-01
 cg2d: Sum(rhs),rhsMax =  -1.03361125856958E-03  1.05775830188150E-01
(PID.TID 0000.0001)      cg2d_init_res =   2.55391476037276E-03
(PID.TID 0000.0001)      cg2d_iters(min,last) =      -1      84
(PID.TID 0000.0001)      cg2d_last_res =   9.37785042519286E-08
(PID.TID 0000.0001) // =======================================================
(PID.TID 0000.0001) // Begin MONITOR dynamic field statistics
(PID.TID 0000.0001) // =======================================================
(PID.TID 0000.0001) %MON time_tsnumber                =                  3960
(PID.TID 0000.0001) %MON time_secondsf                =   4.7520000000000E+06
(PID.TID 0000.0001) %MON dynstat_eta_max              =   1.0941532354319E-01
(PID.TID 0000.0001) %MON dynstat_eta_min              =  -5.1500680549305E-02
(PID.TID 0000.0001) %MON dynstat_eta_mean             =   5.4652933269980E-07
(PID.TID 0000.0001) %MON dynstat_eta_sd               =   4.7038584198477E-02
(PID.TID 0000.0001) %MON dynstat_eta_del2             =   1.6542233805743E-05
(PID.TID 0000.0001) %MON dynstat_uvel_max             =   7.7566232247999E-02
(PID.TID 0000.0001) %MON dynstat_uvel_min             =  -3.1957067814769E-02
(PID.TID 0000.0001) %MON dynstat_uvel_mean            =  -5.5358709228667E-08
(PID.TID 0000.0001) %MON dynstat_uvel_sd              =   2.1049011014546E-02
(PID.TID 0000.0001) %MON dynstat_uvel_del2            =   3.6430962240147E-05
(PID.TID 0000.0001) %MON dynstat_vvel_max             =   6.4704658275309E-02
(PID.TID 0000.0001) %MON dynstat_vvel_min             =  -4.6832750013606E-02
(PID.TID 0000.0001) %MON dynstat_vvel_mean            =   2.2479368969815E-07
(PID.TID 0000.0001) %MON dynstat_vvel_sd              =   1.9115809995372E-02
(PID.TID 0000.0001) %MON dynstat_vvel_del2            =   4.2961385427192E-05
(PID.TID 0000.0001) %MON dynstat_wvel_max             =   2.3856693133857E-08
(PID.TID 0000.0001) %MON dynstat_wvel_min             =  -1.3496704352438E-08
(PID.TID 0000.0001) %MON dynstat_wvel_mean            =   1.3669260725793E-21
(PID.TID 0000.0001) %MON dynstat_wvel_sd              =   9.3611064122413E-09
(PID.TID 0000.0001) %MON dynstat_wvel_del2            =   4.5104945523264E-12
(PID.TID 0000.0001) %MON dynstat_theta_max            =   2.0000000000000E+01
(PID.TID 0000.0001) %MON dynstat_theta_min            =   2.0000000000000E+01
(PID.TID 0000.0001) %MON dynstat_theta_mean           =   2.0000000000000E+01
(PID.TID 0000.0001) %MON dynstat_theta_sd             =   3.8014036363165E-13
(PID.TID 0000.0001) %MON dynstat_theta_del2           =   0.0000000000000E+00
(PID.TID 0000.0001) %MON dynstat_salt_max             =   3.0000000000000E+01
(PID.TID 0000.0001) %MON dynstat_salt_min             =   3.0000000000000E+01
(PID.TID 0000.0001) %MON dynstat_salt_mean            =   2.9999999999999E+01
(PID.TID 0000.0001) %MON dynstat_salt_sd              =   5.5777604757167E-13
(PID.TID 0000.0001) %MON dynstat_salt_del2            =   0.0000000000000E+00
(PID.TID 0000.0001) %MON trAdv_CFL_u_max              =   4.6515893783921E-03
(PID.TID 0000.0001) %MON trAdv_CFL_v_max              =   3.8810354677772E-03
(PID.TID 0000.0001) %MON trAdv_CFL_w_max              =   6.3400922893960E-09
(PID.TID 0000.0001) %MON advcfl_uvel_max              =   4.6539739348799E-03
(PID.TID 0000.0001) %MON advcfl_vvel_max              =   3.8822794965185E-03
(PID.TID 0000.0001) %MON advcfl_wvel_max              =   1.1451212704252E-08
(PID.TID 0000.0001) %MON advcfl_W_hf_max              =   0.0000000000000E+00
(PID.TID 0000.0001) %MON pe_b_mean                    =   2.2684634001096E-06
(PID.TID 0000.0001) %MON ke_max                       =   3.0083137841817E-03
(PID.TID 0000.0001) %MON ke_mean                      =   3.9680415956021E-04
(PID.TID 0000.0001) %MON ke_vol                       =   6.8893493896486E+15
(PID.TID 0000.0001) %MON vort_r_min                   =  -7.6835846816056E-07
(PID.TID 0000.0001) %MON vort_r_max                   =   1.7419455230421E-06
(PID.TID 0000.0001) %MON vort_a_mean                  =   1.0600000000000E-04
(PID.TID 0000.0001) %MON vort_a_sd                    =   3.5338291782048E-06
(PID.TID 0000.0001) %MON vort_p_mean                  =   1.1652272308690E-04
(PID.TID 0000.0001) %MON vort_p_sd                    =   4.1755112447894E-05
(PID.TID 0000.0001) %MON surfExpan_theta_mean         =   2.7440528861512E-20
(PID.TID 0000.0001) %MON surfExpan_salt_mean          =   4.1145792945624E-20
(PID.TID 0000.0001) // =======================================================
(PID.TID 0000.0001) // End MONITOR dynamic field statistics
(PID.TID 0000.0001) // =======================================================
 cg2d: Sum(rhs),rhsMax =  -1.03373120740744E-03  1.05793365856236E-01
 cg2d: Sum(rhs),rhsMax =  -1.03385053876363E-03  1.05810907422993E-01
 cg2d: Sum(rhs),rhsMax =  -1.03396925010342E-03  1.05828454898171E-01
 cg2d: Sum(rhs),rhsMax =  -1.03408734031860E-03  1.05846008291493E-01
 cg2d: Sum(rhs),rhsMax =  -1.03420480727496E-03  1.05863567612658E-01
 cg2d: Sum(rhs),rhsMax =  -1.03432164927607E-03  1.05881132871349E-01
 cg2d: Sum(rhs),rhsMax =  -1.03443786413240E-03  1.05898704077215E-01
 cg2d: Sum(rhs),rhsMax =  -1.03455345081083E-03  1.05916281239903E-01
 cg2d: Sum(rhs),rhsMax =  -1.03466840719863E-03  1.05933864369009E-01
 cg2d: Sum(rhs),rhsMax =  -1.03478273095576E-03  1.05951453474133E-01
 cg2d: Sum(rhs),rhsMax =  -1.03489642064760E-03  1.05969048564837E-01
 cg2d: Sum(rhs),rhsMax =  -1.03500947469057E-03  1.05986649650669E-01
 cg2d: Sum(rhs),rhsMax =  -1.03512189140999E-03  1.06004256741145E-01
 cg2d: Sum(rhs),rhsMax =  -1.03523366867809E-03  1.06021869845768E-01
 cg2d: Sum(rhs),rhsMax =  -1.03534480484403E-03  1.06039488974011E-01
 cg2d: Sum(rhs),rhsMax =  -1.03545529785817E-03  1.06057114135331E-01
 cg2d: Sum(rhs),rhsMax =  -1.03556514638895E-03  1.06074745339155E-01
 cg2d: Sum(rhs),rhsMax =  -1.03567434832041E-03  1.06092382594895E-01
 cg2d: Sum(rhs),rhsMax =  -1.03578290204481E-03  1.06110025911933E-01
 cg2d: Sum(rhs),rhsMax =  -1.03589080567255E-03  1.06127675299634E-01
 cg2d: Sum(rhs),rhsMax =  -1.03599805737956E-03  1.06145330767339E-01
 cg2d: Sum(rhs),rhsMax =  -1.03610465548737E-03  1.06162992324362E-01
 cg2d: Sum(rhs),rhsMax =  -1.03621059800768E-03  1.06180659980000E-01
 cg2d: Sum(rhs),rhsMax =  -1.03631588355588E-03  1.06198333743523E-01
 cg2d: Sum(rhs),rhsMax =  -1.03642051024346E-03  1.06216013624182E-01
 cg2d: Sum(rhs),rhsMax =  -1.03652447607176E-03  1.06233699631200E-01
 cg2d: Sum(rhs),rhsMax =  -1.03662777974328E-03  1.06251391773782E-01
 cg2d: Sum(rhs),rhsMax =  -1.03673041879429E-03  1.06269090061105E-01
 cg2d: Sum(rhs),rhsMax =  -1.03683239219475E-03  1.06286794502329E-01
 cg2d: Sum(rhs),rhsMax =  -1.03693369794844E-03  1.06304505106589E-01
 cg2d: Sum(rhs),rhsMax =  -1.03703433427564E-03  1.06322221882993E-01
 cg2d: Sum(rhs),rhsMax =  -1.03713429926963E-03  1.06339944840633E-01
 cg2d: Sum(rhs),rhsMax =  -1.03723359159872E-03  1.06357673988569E-01
 cg2d: Sum(rhs),rhsMax =  -1.03733220937868E-03  1.06375409335844E-01
 cg2d: Sum(rhs),rhsMax =  -1.03743015063449E-03  1.06393150891481E-01
 cg2d: Sum(rhs),rhsMax =  -1.03752741432938E-03  1.06410898664474E-01
 cg2d: Sum(rhs),rhsMax =  -1.03762399796026E-03  1.06428652663795E-01
 cg2d: Sum(rhs),rhsMax =  -1.03771990015882E-03  1.06446412898391E-01
 cg2d: Sum(rhs),rhsMax =  -1.03781511957093E-03  1.06464179377193E-01
 cg2d: Sum(rhs),rhsMax =  -1.03790965438399E-03  1.06481952109100E-01
 cg2d: Sum(rhs),rhsMax =  -1.03800350279073E-03  1.06499731102997E-01
 cg2d: Sum(rhs),rhsMax =  -1.03809666330465E-03  1.06517516367735E-01
 cg2d: Sum(rhs),rhsMax =  -1.03818913415356E-03  1.06535307912152E-01
 cg2d: Sum(rhs),rhsMax =  -1.03828091385932E-03  1.06553105745057E-01
 cg2d: Sum(rhs),rhsMax =  -1.03837200048392E-03  1.06570909875234E-01
 cg2d: Sum(rhs),rhsMax =  -1.03846239277583E-03  1.06588720311449E-01
 cg2d: Sum(rhs),rhsMax =  -1.03855208904185E-03  1.06606537062444E-01
 cg2d: Sum(rhs),rhsMax =  -1.03864108775405E-03  1.06624360136931E-01
 cg2d: Sum(rhs),rhsMax =  -1.03872938701340E-03  1.06642189543610E-01
 cg2d: Sum(rhs),rhsMax =  -1.03881698580788E-03  1.06660025291144E-01
 cg2d: Sum(rhs),rhsMax =  -1.03890388249027E-03  1.06677867388185E-01
 cg2d: Sum(rhs),rhsMax =  -1.03899007517696E-03  1.06695715843351E-01
 cg2d: Sum(rhs),rhsMax =  -1.03907556263943E-03  1.06713570665247E-01
 cg2d: Sum(rhs),rhsMax =  -1.03916034362152E-03  1.06731431862445E-01
 cg2d: Sum(rhs),rhsMax =  -1.03924441594200E-03  1.06749299443503E-01
 cg2d: Sum(rhs),rhsMax =  -1.03932777818833E-03  1.06767173416944E-01
 cg2d: Sum(rhs),rhsMax =  -1.03941042952483E-03  1.06785053791273E-01
 cg2d: Sum(rhs),rhsMax =  -1.03949236810473E-03  1.06802940574979E-01
 cg2d: Sum(rhs),rhsMax =  -1.03957359281064E-03  1.06820833776513E-01
 cg2d: Sum(rhs),rhsMax =  -1.03965410195673E-03  1.06838733404315E-01
 cg2d: Sum(rhs),rhsMax =  -1.03973389394301E-03  1.06856639466793E-01
 cg2d: Sum(rhs),rhsMax =  -1.03981296818764E-03  1.06874551972337E-01
 cg2d: Sum(rhs),rhsMax =  -1.03989132263110E-03  1.06892470929308E-01
 cg2d: Sum(rhs),rhsMax =  -1.03996895612338E-03  1.06910396346044E-01
 cg2d: Sum(rhs),rhsMax =  -1.04004586699028E-03  1.06928328230868E-01
 cg2d: Sum(rhs),rhsMax =  -1.04012205448452E-03  1.06946266592067E-01
 cg2d: Sum(rhs),rhsMax =  -1.04019751708283E-03  1.06964211437907E-01
 cg2d: Sum(rhs),rhsMax =  -1.04027225339270E-03  1.06982162776645E-01
 cg2d: Sum(rhs),rhsMax =  -1.04034626252428E-03  1.07000120616489E-01
 cg2d: Sum(rhs),rhsMax =  -1.04041954280247E-03  1.07018084965641E-01
 cg2d: Sum(rhs),rhsMax =  -1.04049209346891E-03  1.07036055832275E-01
 cg2d: Sum(rhs),rhsMax =  -1.04056391275654E-03  1.07054033224541E-01
(PID.TID 0000.0001)      cg2d_init_res =   2.52203098620198E-03
(PID.TID 0000.0001)      cg2d_iters(min,last) =      -1      84
(PID.TID 0000.0001)      cg2d_last_res =   8.43941588116602E-08
(PID.TID 0000.0001) // =======================================================
(PID.TID 0000.0001) // Begin MONITOR dynamic field statistics
(PID.TID 0000.0001) // =======================================================
(PID.TID 0000.0001) %MON time_tsnumber                =                  4032
(PID.TID 0000.0001) %MON time_secondsf                =   4.8384000000000E+06
(PID.TID 0000.0001) %MON dynstat_eta_max              =   1.1110190767061E-01
(PID.TID 0000.0001) %MON dynstat_eta_min              =  -5.2035234340305E-02
(PID.TID 0000.0001) %MON dynstat_eta_mean             =   5.5682897603553E-07
(PID.TID 0000.0001) %MON dynstat_eta_sd               =   4.7743207983068E-02
(PID.TID 0000.0001) %MON dynstat_eta_del2             =   1.6761461806315E-05
(PID.TID 0000.0001) %MON dynstat_uvel_max             =   7.8272150523667E-02
(PID.TID 0000.0001) %MON dynstat_uvel_min             =  -3.2647902602174E-02
(PID.TID 0000.0001) %MON dynstat_uvel_mean            =  -6.0725268049860E-08
(PID.TID 0000.0001) %MON dynstat_uvel_sd              =   2.1299863605291E-02
(PID.TID 0000.0001) %MON dynstat_uvel_del2            =   3.6887972470034E-05
(PID.TID 0000.0001) %MON dynstat_vvel_max             =   6.6241488243584E-02
(PID.TID 0000.0001) %MON dynstat_vvel_min             =  -4.7797329012563E-02
(PID.TID 0000.0001) %MON dynstat_vvel_mean            =   2.2275020523307E-07
(PID.TID 0000.0001) %MON dynstat_vvel_sd              =   1.9378425933235E-02
(PID.TID 0000.0001) %MON dynstat_vvel_del2            =   4.3478416316221E-05
(PID.TID 0000.0001) %MON dynstat_wvel_max             =   2.3657807016134E-08
(PID.TID 0000.0001) %MON dynstat_wvel_min             =  -1.3455301069189E-08
(PID.TID 0000.0001) %MON dynstat_wvel_mean            =  -5.1555439818508E-21
(PID.TID 0000.0001) %MON dynstat_wvel_sd              =   9.2781824166421E-09
(PID.TID 0000.0001) %MON dynstat_wvel_del2            =   4.4834059772443E-12
(PID.TID 0000.0001) %MON dynstat_theta_max            =   2.0000000000000E+01
(PID.TID 0000.0001) %MON dynstat_theta_min            =   2.0000000000000E+01
(PID.TID 0000.0001) %MON dynstat_theta_mean           =   2.0000000000000E+01
(PID.TID 0000.0001) %MON dynstat_theta_sd             =   3.8014036363165E-13
(PID.TID 0000.0001) %MON dynstat_theta_del2           =   0.0000000000000E+00
(PID.TID 0000.0001) %MON dynstat_salt_max             =   3.0000000000000E+01
(PID.TID 0000.0001) %MON dynstat_salt_min             =   3.0000000000000E+01
(PID.TID 0000.0001) %MON dynstat_salt_mean            =   2.9999999999999E+01
(PID.TID 0000.0001) %MON dynstat_salt_sd              =   5.5777604757167E-13
(PID.TID 0000.0001) %MON dynstat_salt_del2            =   0.0000000000000E+00
(PID.TID 0000.0001) %MON trAdv_CFL_u_max              =   4.6939318997849E-03
(PID.TID 0000.0001) %MON trAdv_CFL_v_max              =   3.9732100364811E-03
(PID.TID 0000.0001) %MON trAdv_CFL_w_max              =   6.2873437804629E-09
(PID.TID 0000.0001) %MON advcfl_uvel_max              =   4.6963290314200E-03
(PID.TID 0000.0001) %MON advcfl_vvel_max              =   3.9744892946151E-03
(PID.TID 0000.0001) %MON advcfl_wvel_max              =   1.1355747367744E-08
(PID.TID 0000.0001) %MON advcfl_W_hf_max              =   0.0000000000000E+00
(PID.TID 0000.0001) %MON pe_b_mean                    =   2.3369342168943E-06
(PID.TID 0000.0001) %MON ke_max                       =   3.0634354126316E-03
(PID.TID 0000.0001) %MON ke_mean                      =   4.0697980073315E-04
(PID.TID 0000.0001) %MON ke_vol                       =   6.8893493896486E+15
(PID.TID 0000.0001) %MON vort_r_min                   =  -7.7983857785577E-07
(PID.TID 0000.0001) %MON vort_r_max                   =   1.7749652615218E-06
(PID.TID 0000.0001) %MON vort_a_mean                  =   1.0600000000000E-04
(PID.TID 0000.0001) %MON vort_a_sd                    =   3.5342014153372E-06
(PID.TID 0000.0001) %MON vort_p_mean                  =   1.1652272308690E-04
(PID.TID 0000.0001) %MON vort_p_sd                    =   4.1756108868530E-05
(PID.TID 0000.0001) %MON surfExpan_theta_mean         =  -1.0298006398241E-19
(PID.TID 0000.0001) %MON surfExpan_salt_mean          =  -1.5446820119299E-19
(PID.TID 0000.0001) // =======================================================
(PID.TID 0000.0001) // End MONITOR dynamic field statistics
(PID.TID 0000.0001) // =======================================================
 cg2d: Sum(rhs),rhsMax =  -1.04063499993442E-03  1.07072017150564E-01
 cg2d: Sum(rhs),rhsMax =  -1.04070535394488E-03  1.07090007618443E-01
 cg2d: Sum(rhs),rhsMax =  -1.04077497354737E-03  1.07108004636260E-01
 cg2d: Sum(rhs),rhsMax =  -1.04084385706580E-03  1.07126008212069E-01
 cg2d: Sum(rhs),rhsMax =  -1.04091200406155E-03  1.07144018353894E-01
 cg2d: Sum(rhs),rhsMax =  -1.04097941320903E-03  1.07162035069744E-01
 cg2d: Sum(rhs),rhsMax =  -1.04104608355818E-03  1.07180058367603E-01
 cg2d: Sum(rhs),rhsMax =  -1.04111201379514E-03  1.07198088255424E-01
 cg2d: Sum(rhs),rhsMax =  -1.04117720330746E-03  1.07216124741145E-01
 cg2d: Sum(rhs),rhsMax =  -1.04124165117883E-03  1.07234167832675E-01
 cg2d: Sum(rhs),rhsMax =  -1.04130535594627E-03  1.07252217537898E-01
 cg2d: Sum(rhs),rhsMax =  -1.04136831708427E-03  1.07270273864675E-01
 cg2d: Sum(rhs),rhsMax =  -1.04143053336092E-03  1.07288336820842E-01
 cg2d: Sum(rhs),rhsMax =  -1.04149200388101E-03  1.07306406414214E-01
 cg2d: Sum(rhs),rhsMax =  -1.04155272817026E-03  1.07324482652579E-01
 cg2d: Sum(rhs),rhsMax =  -1.04155310458236E-03  1.07348708000780E-01
 cg2d: Sum(rhs),rhsMax =  -1.04148422026912E-03  1.07380005441610E-01
 cg2d: Sum(rhs),rhsMax =  -1.04141495155959E-03  1.07411278221250E-01
 cg2d: Sum(rhs),rhsMax =  -1.04134529769300E-03  1.07442526261446E-01
 cg2d: Sum(rhs),rhsMax =  -1.04127525930198E-03  1.07473749484014E-01
 cg2d: Sum(rhs),rhsMax =  -1.04120483570147E-03  1.07504947810874E-01
 cg2d: Sum(rhs),rhsMax =  -1.04113402758570E-03  1.07536121164028E-01
 cg2d: Sum(rhs),rhsMax =  -1.04106283493913E-03  1.07567269465576E-01
 cg2d: Sum(rhs),rhsMax =  -1.04099125800504E-03  1.07598392637698E-01
 cg2d: Sum(rhs),rhsMax =  -1.04091929644806E-03  1.07629490602676E-01
 cg2d: Sum(rhs),rhsMax =  -1.04084695057517E-03  1.07660563282875E-01
 cg2d: Sum(rhs),rhsMax =  -1.04083509983552E-03  1.07691610756534E-01
 cg2d: Sum(rhs),rhsMax =  -1.04082264417399E-03  1.07722632631172E-01
 cg2d: Sum(rhs),rhsMax =  -1.04080958675972E-03  1.07753628984564E-01
 cg2d: Sum(rhs),rhsMax =  -1.04079591947483E-03  1.07784599748081E-01
 cg2d: Sum(rhs),rhsMax =  -1.04078164394450E-03  1.07815544839842E-01
 cg2d: Sum(rhs),rhsMax =  -1.04076676313282E-03  1.07846464182465E-01
 cg2d: Sum(rhs),rhsMax =  -1.04075127782614E-03  1.07877357699552E-01
 cg2d: Sum(rhs),rhsMax =  -1.04073518894629E-03  1.07908225314421E-01
 cg2d: Sum(rhs),rhsMax =  -1.04071849732243E-03  1.07939066950104E-01
 cg2d: Sum(rhs),rhsMax =  -1.04070120391905E-03  1.07969882529668E-01
 cg2d: Sum(rhs),rhsMax =  -1.04068330911946E-03  1.08000671976415E-01
 cg2d: Sum(rhs),rhsMax =  -1.04066481452397E-03  1.08031435213861E-01
 cg2d: Sum(rhs),rhsMax =  -1.04064572053020E-03  1.08062172165674E-01
 cg2d: Sum(rhs),rhsMax =  -1.04062602875443E-03  1.08092882755582E-01
 cg2d: Sum(rhs),rhsMax =  -1.04060573989657E-03  1.08123566907364E-01
 cg2d: Sum(rhs),rhsMax =  -1.04058485501351E-03  1.08154224544860E-01
 cg2d: Sum(rhs),rhsMax =  -1.04056337534515E-03  1.08184855591995E-01
 cg2d: Sum(rhs),rhsMax =  -1.04054130217580E-03  1.08215459972792E-01
 cg2d: Sum(rhs),rhsMax =  -1.04051863637138E-03  1.08246037611386E-01
 cg2d: Sum(rhs),rhsMax =  -1.04049537965389E-03  1.08276588432004E-01
 cg2d: Sum(rhs),rhsMax =  -1.04047153282046E-03  1.08307112358989E-01
 cg2d: Sum(rhs),rhsMax =  -1.04044709750321E-03  1.08337609316765E-01
 cg2d: Sum(rhs),rhsMax =  -1.04042207472859E-03  1.08368079229862E-01
 cg2d: Sum(rhs),rhsMax =  -1.04039646610546E-03  1.08398522022896E-01
 cg2d: Sum(rhs),rhsMax =  -1.04037027338639E-03  1.08428937620585E-01
 cg2d: Sum(rhs),rhsMax =  -1.04034349747057E-03  1.08459325947741E-01
 cg2d: Sum(rhs),rhsMax =  -1.04031614010753E-03  1.08489686929273E-01
 cg2d: Sum(rhs),rhsMax =  -1.04028820262558E-03  1.08520020490183E-01
 cg2d: Sum(rhs),rhsMax =  -1.04025968675250E-03  1.08550326555580E-01
 cg2d: Sum(rhs),rhsMax =  -1.04023059406059E-03  1.08580605050662E-01
 cg2d: Sum(rhs),rhsMax =  -1.04020092618918E-03  1.08610855900729E-01
 cg2d: Sum(rhs),rhsMax =  -1.04017068483418E-03  1.08641079031178E-01
 cg2d: Sum(rhs),rhsMax =  -1.04013987175390E-03  1.08671274367503E-01
 cg2d: Sum(rhs),rhsMax =  -1.04010848843233E-03  1.08701441835299E-01
 cg2d: Sum(rhs),rhsMax =  -1.04007653704139E-03  1.08731581360258E-01
 cg2d: Sum(rhs),rhsMax =  -1.04004401911107E-03  1.08761692868172E-01
 cg2d: Sum(rhs),rhsMax =  -1.04001093660465E-03  1.08791776284938E-01
 cg2d: Sum(rhs),rhsMax =  -1.03997729129942E-03  1.08821831536536E-01
 cg2d: Sum(rhs),rhsMax =  -1.03994308538616E-03  1.08851858549059E-01
 cg2d: Sum(rhs),rhsMax =  -1.03990832070627E-03  1.08881857248701E-01
 cg2d: Sum(rhs),rhsMax =  -1.03987299910237E-03  1.08911827561744E-01
 cg2d: Sum(rhs),rhsMax =  -1.03983712296123E-03  1.08941769414587E-01
 cg2d: Sum(rhs),rhsMax =  -1.03980069422117E-03  1.08971682733712E-01
 cg2d: Sum(rhs),rhsMax =  -1.03976371475768E-03  1.09001567445709E-01
 cg2d: Sum(rhs),rhsMax =  -1.03972618715268E-03  1.09031423477277E-01
 cg2d: Sum(rhs),rhsMax =  -1.03968811350133E-03  1.09061250755202E-01
(PID.TID 0000.0001)      cg2d_init_res =   2.47454075615394E-03
(PID.TID 0000.0001)      cg2d_iters(min,last) =      -1      83
(PID.TID 0000.0001)      cg2d_last_res =   9.23165473530302E-08
(PID.TID 0000.0001) // =======================================================
(PID.TID 0000.0001) // Begin MONITOR dynamic field statistics
(PID.TID 0000.0001) // =======================================================
(PID.TID 0000.0001) %MON time_tsnumber                =                  4104
(PID.TID 0000.0001) %MON time_secondsf                =   4.9248000000000E+06
(PID.TID 0000.0001) %MON dynstat_eta_max              =   1.1280519851223E-01
(PID.TID 0000.0001) %MON dynstat_eta_min              =  -5.2560426460376E-02
(PID.TID 0000.0001) %MON dynstat_eta_mean             =   5.6679169726161E-07
(PID.TID 0000.0001) %MON dynstat_eta_sd               =   4.8443309146862E-02
(PID.TID 0000.0001) %MON dynstat_eta_del2             =   1.6975575701639E-05
(PID.TID 0000.0001) %MON dynstat_uvel_max             =   7.8975547269538E-02
(PID.TID 0000.0001) %MON dynstat_uvel_min             =  -3.3345042437049E-02
(PID.TID 0000.0001) %MON dynstat_uvel_mean            =  -6.6910586076457E-08
(PID.TID 0000.0001) %MON dynstat_uvel_sd              =   2.1549362304468E-02
(PID.TID 0000.0001) %MON dynstat_uvel_del2            =   3.7344699388148E-05
(PID.TID 0000.0001) %MON dynstat_vvel_max             =   6.7749300456825E-02
(PID.TID 0000.0001) %MON dynstat_vvel_min             =  -4.8745896216503E-02
(PID.TID 0000.0001) %MON dynstat_vvel_mean            =   2.2052631853190E-07
(PID.TID 0000.0001) %MON dynstat_vvel_sd              =   1.9638962253842E-02
(PID.TID 0000.0001) %MON dynstat_vvel_del2            =   4.3976861538671E-05
(PID.TID 0000.0001) %MON dynstat_wvel_max             =   2.3430055869685E-08
(PID.TID 0000.0001) %MON dynstat_wvel_min             =  -1.3473350543354E-08
(PID.TID 0000.0001) %MON dynstat_wvel_mean            =  -2.1181985074590E-21
(PID.TID 0000.0001) %MON dynstat_wvel_sd              =   9.1913302870547E-09
(PID.TID 0000.0001) %MON dynstat_wvel_del2            =   4.4557802333186E-12
(PID.TID 0000.0001) %MON dynstat_theta_max            =   2.0000000000000E+01
(PID.TID 0000.0001) %MON dynstat_theta_min            =   2.0000000000000E+01
(PID.TID 0000.0001) %MON dynstat_theta_mean           =   2.0000000000000E+01
(PID.TID 0000.0001) %MON dynstat_theta_sd             =   3.8014036363165E-13
(PID.TID 0000.0001) %MON dynstat_theta_del2           =   0.0000000000000E+00
(PID.TID 0000.0001) %MON dynstat_salt_max             =   3.0000000000000E+01
(PID.TID 0000.0001) %MON dynstat_salt_min             =   3.0000000000000E+01
(PID.TID 0000.0001) %MON dynstat_salt_mean            =   2.9999999999999E+01
(PID.TID 0000.0001) %MON dynstat_salt_sd              =   5.5777604757167E-13
(PID.TID 0000.0001) %MON dynstat_salt_del2            =   0.0000000000000E+00
(PID.TID 0000.0001) %MON trAdv_CFL_u_max              =   4.7361199418709E-03
(PID.TID 0000.0001) %MON trAdv_CFL_v_max              =   4.0637265711254E-03
(PID.TID 0000.0001) %MON trAdv_CFL_w_max              =   6.2307271942313E-09
(PID.TID 0000.0001) %MON advcfl_uvel_max              =   4.7385328361723E-03
(PID.TID 0000.0001) %MON advcfl_vvel_max              =   4.0649580274095E-03
(PID.TID 0000.0001) %MON advcfl_wvel_max              =   1.1246426817449E-08
(PID.TID 0000.0001) %MON advcfl_W_hf_max              =   0.0000000000000E+00
(PID.TID 0000.0001) %MON pe_b_mean                    =   2.4059738210364E-06
(PID.TID 0000.0001) %MON ke_max                       =   3.1187706397459E-03
(PID.TID 0000.0001) %MON ke_mean                      =   4.1721617817746E-04
(PID.TID 0000.0001) %MON ke_vol                       =   6.8893493896486E+15
(PID.TID 0000.0001) %MON vort_r_min                   =  -7.9049359405495E-07
(PID.TID 0000.0001) %MON vort_r_max                   =   1.8058685030242E-06
(PID.TID 0000.0001) %MON vort_a_mean                  =   1.0600000000000E-04
(PID.TID 0000.0001) %MON vort_a_sd                    =   3.5345700757043E-06
(PID.TID 0000.0001) %MON vort_p_mean                  =   1.1652272308690E-04
(PID.TID 0000.0001) %MON vort_p_sd                    =   4.1757065088392E-05
(PID.TID 0000.0001) %MON surfExpan_theta_mean         =  -4.2256134394039E-20
(PID.TID 0000.0001) %MON surfExpan_salt_mean          =  -6.3379464639487E-20
(PID.TID 0000.0001) // =======================================================
(PID.TID 0000.0001) // End MONITOR dynamic field statistics
(PID.TID 0000.0001) // =======================================================
 cg2d: Sum(rhs),rhsMax =  -1.03964949584363E-03  1.09091049206376E-01
 cg2d: Sum(rhs),rhsMax =  -1.03961033663363E-03  1.09120818757798E-01
 cg2d: Sum(rhs),rhsMax =  -1.03957063824017E-03  1.09150559336564E-01
 cg2d: Sum(rhs),rhsMax =  -1.03953040301611E-03  1.09180270869870E-01
 cg2d: Sum(rhs),rhsMax =  -1.03948963356821E-03  1.09209953285019E-01
 cg2d: Sum(rhs),rhsMax =  -1.03944833212993E-03  1.09239606509414E-01
 cg2d: Sum(rhs),rhsMax =  -1.03940650119231E-03  1.09269230470554E-01
 cg2d: Sum(rhs),rhsMax =  -1.03936414323308E-03  1.09298825096054E-01
 cg2d: Sum(rhs),rhsMax =  -1.03932126080264E-03  1.09328390313620E-01
 cg2d: Sum(rhs),rhsMax =  -1.03927785654092E-03  1.09357926051069E-01
 cg2d: Sum(rhs),rhsMax =  -1.03923393313834E-03  1.09387432236315E-01
 cg2d: Sum(rhs),rhsMax =  -1.03918949338007E-03  1.09416908797378E-01
 cg2d: Sum(rhs),rhsMax =  -1.03914453965981E-03  1.09446355662382E-01
 cg2d: Sum(rhs),rhsMax =  -1.03909907550464E-03  1.09475772759554E-01
 cg2d: Sum(rhs),rhsMax =  -1.03905310308423E-03  1.09505160017228E-01
 cg2d: Sum(rhs),rhsMax =  -1.03900662510959E-03  1.09534517363839E-01
 cg2d: Sum(rhs),rhsMax =  -1.03895964490511E-03  1.09563844727926E-01
 cg2d: Sum(rhs),rhsMax =  -1.03891216525693E-03  1.09593142038133E-01
 cg2d: Sum(rhs),rhsMax =  -1.03886418913103E-03  1.09622409223212E-01
 cg2d: Sum(rhs),rhsMax =  -1.03881571980685E-03  1.09651646212019E-01
 cg2d: Sum(rhs),rhsMax =  -1.03876675999102E-03  1.09680852933509E-01
 cg2d: Sum(rhs),rhsMax =  -1.03871731285259E-03  1.09710029316751E-01
 cg2d: Sum(rhs),rhsMax =  -1.03866738178710E-03  1.09739175290914E-01
 cg2d: Sum(rhs),rhsMax =  -1.03861696952212E-03  1.09768290785277E-01
 cg2d: Sum(rhs),rhsMax =  -1.03856607962145E-03  1.09797375729220E-01
 cg2d: Sum(rhs),rhsMax =  -1.03851471522861E-03  1.09826430052232E-01
 cg2d: Sum(rhs),rhsMax =  -1.03846287973534E-03  1.09855453683911E-01
 cg2d: Sum(rhs),rhsMax =  -1.03841057643956E-03  1.09884446553954E-01
 cg2d: Sum(rhs),rhsMax =  -1.03835780885914E-03  1.09913408592175E-01
 cg2d: Sum(rhs),rhsMax =  -1.03830458045421E-03  1.09942339728485E-01
 cg2d: Sum(rhs),rhsMax =  -1.03825089446600E-03  1.09971239892908E-01
 cg2d: Sum(rhs),rhsMax =  -1.03819675416142E-03  1.10000109015575E-01
 cg2d: Sum(rhs),rhsMax =  -1.03814216363401E-03  1.10028947026723E-01
 cg2d: Sum(rhs),rhsMax =  -1.03808712619348E-03  1.10057753856694E-01
 cg2d: Sum(rhs),rhsMax =  -1.03803164602030E-03  1.10086529435946E-01
 cg2d: Sum(rhs),rhsMax =  -1.03797572584058E-03  1.10115273695035E-01
 cg2d: Sum(rhs),rhsMax =  -1.03791936999472E-03  1.10143986564633E-01
 cg2d: Sum(rhs),rhsMax =  -1.03786258192015E-03  1.10172667975519E-01
 cg2d: Sum(rhs),rhsMax =  -1.03780536582459E-03  1.10201317858575E-01
 cg2d: Sum(rhs),rhsMax =  -1.03774772524120E-03  1.10229936144800E-01
 cg2d: Sum(rhs),rhsMax =  -1.03768966399716E-03  1.10258522765297E-01
 cg2d: Sum(rhs),rhsMax =  -1.03763118639011E-03  1.10287077651278E-01
 cg2d: Sum(rhs),rhsMax =  -1.03757229592502E-03  1.10315600734068E-01
 cg2d: Sum(rhs),rhsMax =  -1.03751299742395E-03  1.10344091945095E-01
 cg2d: Sum(rhs),rhsMax =  -1.03745329403241E-03  1.10372551215907E-01
 cg2d: Sum(rhs),rhsMax =  -1.03739319013578E-03  1.10400978478152E-01
 cg2d: Sum(rhs),rhsMax =  -1.03733268991014E-03  1.10429373663592E-01
 cg2d: Sum(rhs),rhsMax =  -1.03727179740495E-03  1.10457736704100E-01
 cg2d: Sum(rhs),rhsMax =  -1.03721051727511E-03  1.10486067531657E-01
 cg2d: Sum(rhs),rhsMax =  -1.03714885311844E-03  1.10514366078359E-01
 cg2d: Sum(rhs),rhsMax =  -1.03708680962853E-03  1.10542632276412E-01
 cg2d: Sum(rhs),rhsMax =  -1.03702439104273E-03  1.10570866058124E-01
 cg2d: Sum(rhs),rhsMax =  -1.03696160175288E-03  1.10599067355928E-01
 cg2d: Sum(rhs),rhsMax =  -1.03689844598732E-03  1.10627236102357E-01
 cg2d: Sum(rhs),rhsMax =  -1.03683492863676E-03  1.10655372230062E-01
 cg2d: Sum(rhs),rhsMax =  -1.03677105374241E-03  1.10683475671807E-01
 cg2d: Sum(rhs),rhsMax =  -1.03670682631905E-03  1.10711546360459E-01
 cg2d: Sum(rhs),rhsMax =  -1.03664225022781E-03  1.10739584229007E-01
 cg2d: Sum(rhs),rhsMax =  -1.03657733059372E-03  1.10767589210547E-01
 cg2d: Sum(rhs),rhsMax =  -1.03651207186589E-03  1.10795561238288E-01
 cg2d: Sum(rhs),rhsMax =  -1.03644647869471E-03  1.10823500245553E-01
 cg2d: Sum(rhs),rhsMax =  -1.03638055615590E-03  1.10851406165776E-01
 cg2d: Sum(rhs),rhsMax =  -1.03631430842961E-03  1.10879278932506E-01
 cg2d: Sum(rhs),rhsMax =  -1.03624774063540E-03  1.10907118479403E-01
 cg2d: Sum(rhs),rhsMax =  -1.03618085774171E-03  1.10934924740240E-01
 cg2d: Sum(rhs),rhsMax =  -1.03611366453743E-03  1.10962697648905E-01
 cg2d: Sum(rhs),rhsMax =  -1.03604616595193E-03  1.10990437139402E-01
 cg2d: Sum(rhs),rhsMax =  -1.03597836670474E-03  1.11018143145843E-01
 cg2d: Sum(rhs),rhsMax =  -1.03591027202572E-03  1.11045815602458E-01
 cg2d: Sum(rhs),rhsMax =  -1.03584188694163E-03  1.11073454443591E-01
 cg2d: Sum(rhs),rhsMax =  -1.03577321632885E-03  1.11101059603699E-01
 cg2d: Sum(rhs),rhsMax =  -1.03570426530966E-03  1.11128631017351E-01
(PID.TID 0000.0001)      cg2d_init_res =   2.42737323866309E-03
(PID.TID 0000.0001)      cg2d_iters(min,last) =      -1      83
(PID.TID 0000.0001)      cg2d_last_res =   8.17752535261881E-08
(PID.TID 0000.0001) // =======================================================
(PID.TID 0000.0001) // Begin MONITOR dynamic field statistics
(PID.TID 0000.0001) // =======================================================
(PID.TID 0000.0001) %MON time_tsnumber                =                  4176
(PID.TID 0000.0001) %MON time_secondsf                =   5.0112000000000E+06
(PID.TID 0000.0001) %MON dynstat_eta_max              =   1.1447165657377E-01
(PID.TID 0000.0001) %MON dynstat_eta_min              =  -5.3076489846968E-02
(PID.TID 0000.0001) %MON dynstat_eta_mean             =   5.7529118350403E-07
(PID.TID 0000.0001) %MON dynstat_eta_sd               =   4.9138428197817E-02
(PID.TID 0000.0001) %MON dynstat_eta_del2             =   1.7184555262979E-05
(PID.TID 0000.0001) %MON dynstat_uvel_max             =   7.9680246608323E-02
(PID.TID 0000.0001) %MON dynstat_uvel_min             =  -3.4053530524390E-02
(PID.TID 0000.0001) %MON dynstat_uvel_mean            =  -7.3696408427488E-08
(PID.TID 0000.0001) %MON dynstat_uvel_sd              =   2.1797837922505E-02
(PID.TID 0000.0001) %MON dynstat_uvel_del2            =   3.7802314970493E-05
(PID.TID 0000.0001) %MON dynstat_vvel_max             =   6.9189083767215E-02
(PID.TID 0000.0001) %MON dynstat_vvel_min             =  -4.9677456723273E-02
(PID.TID 0000.0001) %MON dynstat_vvel_mean            =   2.1829423170192E-07
(PID.TID 0000.0001) %MON dynstat_vvel_sd              =   1.9897180648342E-02
(PID.TID 0000.0001) %MON dynstat_vvel_del2            =   4.4454145516872E-05
(PID.TID 0000.0001) %MON dynstat_wvel_max             =   2.3217275823572E-08
(PID.TID 0000.0001) %MON dynstat_wvel_min             =  -1.3444402249879E-08
(PID.TID 0000.0001) %MON dynstat_wvel_mean            =   3.7464279658808E-21
(PID.TID 0000.0001) %MON dynstat_wvel_sd              =   9.1016692208475E-09
(PID.TID 0000.0001) %MON dynstat_wvel_del2            =   4.4288534315117E-12
(PID.TID 0000.0001) %MON dynstat_theta_max            =   2.0000000000000E+01
(PID.TID 0000.0001) %MON dynstat_theta_min            =   2.0000000000000E+01
(PID.TID 0000.0001) %MON dynstat_theta_mean           =   2.0000000000000E+01
(PID.TID 0000.0001) %MON dynstat_theta_sd             =   3.8014036363165E-13
(PID.TID 0000.0001) %MON dynstat_theta_del2           =   0.0000000000000E+00
(PID.TID 0000.0001) %MON dynstat_salt_max             =   3.0000000000000E+01
(PID.TID 0000.0001) %MON dynstat_salt_min             =   3.0000000000000E+01
(PID.TID 0000.0001) %MON dynstat_salt_mean            =   2.9999999999999E+01
(PID.TID 0000.0001) %MON dynstat_salt_sd              =   5.5777604757167E-13
(PID.TID 0000.0001) %MON dynstat_salt_del2            =   0.0000000000000E+00
(PID.TID 0000.0001) %MON trAdv_CFL_u_max              =   4.7783829882297E-03
(PID.TID 0000.0001) %MON trAdv_CFL_v_max              =   4.1501787531350E-03
(PID.TID 0000.0001) %MON trAdv_CFL_w_max              =   6.1746058199201E-09
(PID.TID 0000.0001) %MON advcfl_uvel_max              =   4.7808147964994E-03
(PID.TID 0000.0001) %MON advcfl_vvel_max              =   4.1513450260329E-03
(PID.TID 0000.0001) %MON advcfl_wvel_max              =   1.1144292395315E-08
(PID.TID 0000.0001) %MON advcfl_W_hf_max              =   0.0000000000000E+00
(PID.TID 0000.0001) %MON pe_b_mean                    =   2.4755164381958E-06
(PID.TID 0000.0001) %MON ke_max                       =   3.1746179447323E-03
(PID.TID 0000.0001) %MON ke_mean                      =   4.2751312537725E-04
(PID.TID 0000.0001) %MON ke_vol                       =   6.8893493896486E+15
(PID.TID 0000.0001) %MON vort_r_min                   =  -8.0033858060267E-07
(PID.TID 0000.0001) %MON vort_r_max                   =   1.8364654752089E-06
(PID.TID 0000.0001) %MON vort_a_mean                  =   1.0600000000000E-04
(PID.TID 0000.0001) %MON vort_a_sd                    =   3.5349350792532E-06
(PID.TID 0000.0001) %MON vort_p_mean                  =   1.1652272308690E-04
(PID.TID 0000.0001) %MON vort_p_sd                    =   4.1757983485973E-05
(PID.TID 0000.0001) %MON surfExpan_theta_mean         =   7.4935652744696E-20
(PID.TID 0000.0001) %MON surfExpan_salt_mean          =   1.1241737417499E-19
(PID.TID 0000.0001) // =======================================================
(PID.TID 0000.0001) // End MONITOR dynamic field statistics
(PID.TID 0000.0001) // =======================================================
 cg2d: Sum(rhs),rhsMax =  -1.03563503918307E-03  1.11156168619239E-01
 cg2d: Sum(rhs),rhsMax =  -1.03556554274105E-03  1.11183672344160E-01
 cg2d: Sum(rhs),rhsMax =  -1.03549578163100E-03  1.11211142127033E-01
 cg2d: Sum(rhs),rhsMax =  -1.03542576121592E-03  1.11238577902887E-01
 cg2d: Sum(rhs),rhsMax =  -1.03535548641539E-03  1.11265979606872E-01
 cg2d: Sum(rhs),rhsMax =  -1.03528496272154E-03  1.11293347174248E-01
 cg2d: Sum(rhs),rhsMax =  -1.03521419532043E-03  1.11320680540395E-01
 cg2d: Sum(rhs),rhsMax =  -1.03514318960662E-03  1.11347979640802E-01
 cg2d: Sum(rhs),rhsMax =  -1.03507195094810E-03  1.11375244411086E-01
 cg2d: Sum(rhs),rhsMax =  -1.03500048482656E-03  1.11402474786966E-01
 cg2d: Sum(rhs),rhsMax =  -1.03492879706555E-03  1.11429670704288E-01
 cg2d: Sum(rhs),rhsMax =  -1.03485689265587E-03  1.11456832099011E-01
 cg2d: Sum(rhs),rhsMax =  -1.03478477741284E-03  1.11483958907208E-01
 cg2d: Sum(rhs),rhsMax =  -1.03471245690921E-03  1.11511051065071E-01
 cg2d: Sum(rhs),rhsMax =  -1.03463993664322E-03  1.11538108508913E-01
 cg2d: Sum(rhs),rhsMax =  -1.03456722246558E-03  1.11565131175158E-01
 cg2d: Sum(rhs),rhsMax =  -1.03449431962039E-03  1.11592119000345E-01
 cg2d: Sum(rhs),rhsMax =  -1.03442123453070E-03  1.11619071921140E-01
 cg2d: Sum(rhs),rhsMax =  -1.03434797224442E-03  1.11645989874322E-01
 cg2d: Sum(rhs),rhsMax =  -1.03427453876860E-03  1.11672872796784E-01
 cg2d: Sum(rhs),rhsMax =  -1.03420094004912E-03  1.11699720625544E-01
 cg2d: Sum(rhs),rhsMax =  -1.03412718159036E-03  1.11726533297731E-01
 cg2d: Sum(rhs),rhsMax =  -1.03405326969127E-03  1.11753310750597E-01
 cg2d: Sum(rhs),rhsMax =  -1.03397920996305E-03  1.11780052921508E-01
 cg2d: Sum(rhs),rhsMax =  -1.03390500819533E-03  1.11806759747955E-01
 cg2d: Sum(rhs),rhsMax =  -1.03383067035834E-03  1.11833431167543E-01
 cg2d: Sum(rhs),rhsMax =  -1.03375620258945E-03  1.11860067117997E-01
 cg2d: Sum(rhs),rhsMax =  -1.03368161117302E-03  1.11886667537161E-01
 cg2d: Sum(rhs),rhsMax =  -1.03360690151313E-03  1.11913232362997E-01
 cg2d: Sum(rhs),rhsMax =  -1.03353208020008E-03  1.11939761533589E-01
 cg2d: Sum(rhs),rhsMax =  -1.03344230726904E-03  1.11967863427549E-01
 cg2d: Sum(rhs),rhsMax =  -1.03333709563302E-03  1.11997593032968E-01
 cg2d: Sum(rhs),rhsMax =  -1.03323175066330E-03  1.12027293325658E-01
 cg2d: Sum(rhs),rhsMax =  -1.03312627838636E-03  1.12056964235950E-01
 cg2d: Sum(rhs),rhsMax =  -1.03302068564626E-03  1.12086605694276E-01
 cg2d: Sum(rhs),rhsMax =  -1.03291497814976E-03  1.12116217631163E-01
 cg2d: Sum(rhs),rhsMax =  -1.03280916215175E-03  1.12145799977233E-01
 cg2d: Sum(rhs),rhsMax =  -1.03270324417888E-03  1.12175352663209E-01
 cg2d: Sum(rhs),rhsMax =  -1.03259723083789E-03  1.12204875619909E-01
 cg2d: Sum(rhs),rhsMax =  -1.03249112820785E-03  1.12234368778247E-01
 cg2d: Sum(rhs),rhsMax =  -1.03238494324500E-03  1.12263832069239E-01
 cg2d: Sum(rhs),rhsMax =  -1.03227868194918E-03  1.12293265423995E-01
 cg2d: Sum(rhs),rhsMax =  -1.03217235046088E-03  1.12322668773725E-01
 cg2d: Sum(rhs),rhsMax =  -1.03206595562476E-03  1.12352042049734E-01
 cg2d: Sum(rhs),rhsMax =  -1.03195950390580E-03  1.12381385183428E-01
 cg2d: Sum(rhs),rhsMax =  -1.03185300198442E-03  1.12410698106312E-01
 cg2d: Sum(rhs),rhsMax =  -1.03174645598478E-03  1.12439980749989E-01
 cg2d: Sum(rhs),rhsMax =  -1.03163987305933E-03  1.12469233046158E-01
 cg2d: Sum(rhs),rhsMax =  -1.03153325910260E-03  1.12498454926623E-01
 cg2d: Sum(rhs),rhsMax =  -1.03142662087228E-03  1.12527646323281E-01
 cg2d: Sum(rhs),rhsMax =  -1.03131996539948E-03  1.12556807168133E-01
 cg2d: Sum(rhs),rhsMax =  -1.03121329843682E-03  1.12585937393278E-01
 cg2d: Sum(rhs),rhsMax =  -1.03110662761573E-03  1.12615036930911E-01
 cg2d: Sum(rhs),rhsMax =  -1.03099995901479E-03  1.12644105713331E-01
 cg2d: Sum(rhs),rhsMax =  -1.03089329927052E-03  1.12673143672938E-01
 cg2d: Sum(rhs),rhsMax =  -1.03078665533634E-03  1.12702150742229E-01
 cg2d: Sum(rhs),rhsMax =  -1.03068003361890E-03  1.12731126853806E-01
 cg2d: Sum(rhs),rhsMax =  -1.03057344085016E-03  1.12760071940364E-01
 cg2d: Sum(rhs),rhsMax =  -1.03046688373146E-03  1.12788985934705E-01
 cg2d: Sum(rhs),rhsMax =  -1.03036036908799E-03  1.12817868769729E-01
 cg2d: Sum(rhs),rhsMax =  -1.03025390352096E-03  1.12846720378441E-01
 cg2d: Sum(rhs),rhsMax =  -1.03014749382429E-03  1.12875540693941E-01
 cg2d: Sum(rhs),rhsMax =  -1.03004114681807E-03  1.12904329649435E-01
 cg2d: Sum(rhs),rhsMax =  -1.02993486930138E-03  1.12933087178230E-01
 cg2d: Sum(rhs),rhsMax =  -1.02982866768599E-03  1.12961813213733E-01
 cg2d: Sum(rhs),rhsMax =  -1.02972254917311E-03  1.12990507689455E-01
 cg2d: Sum(rhs),rhsMax =  -1.02961652047886E-03  1.13019170539007E-01
 cg2d: Sum(rhs),rhsMax =  -1.02951058771362E-03  1.13047801696106E-01
 cg2d: Sum(rhs),rhsMax =  -1.02940475861023E-03  1.13076401094563E-01
 cg2d: Sum(rhs),rhsMax =  -1.02929903932991E-03  1.13104968668304E-01
 cg2d: Sum(rhs),rhsMax =  -1.02919343717403E-03  1.13133504351348E-01
 cg2d: Sum(rhs),rhsMax =  -1.02908795878138E-03  1.13162008077817E-01
(PID.TID 0000.0001)      cg2d_init_res =   2.38223596407713E-03
(PID.TID 0000.0001)      cg2d_iters(min,last) =      -1      83
(PID.TID 0000.0001)      cg2d_last_res =   7.47816571849931E-08
(PID.TID 0000.0001) // =======================================================
(PID.TID 0000.0001) // Begin MONITOR dynamic field statistics
(PID.TID 0000.0001) // =======================================================
(PID.TID 0000.0001) %MON time_tsnumber                =                  4248
(PID.TID 0000.0001) %MON time_secondsf                =   5.0976000000000E+06
(PID.TID 0000.0001) %MON dynstat_eta_max              =   1.1610099978101E-01
(PID.TID 0000.0001) %MON dynstat_eta_min              =  -5.3583508648366E-02
(PID.TID 0000.0001) %MON dynstat_eta_mean             =   5.8205677674671E-07
(PID.TID 0000.0001) %MON dynstat_eta_sd               =   4.9828153948630E-02
(PID.TID 0000.0001) %MON dynstat_eta_del2             =   1.7388434597678E-05
(PID.TID 0000.0001) %MON dynstat_uvel_max             =   8.0389902110311E-02
(PID.TID 0000.0001) %MON dynstat_uvel_min             =  -3.4784806840711E-02
(PID.TID 0000.0001) %MON dynstat_uvel_mean            =  -8.0824826876340E-08
(PID.TID 0000.0001) %MON dynstat_uvel_sd              =   2.2045640732360E-02
(PID.TID 0000.0001) %MON dynstat_uvel_del2            =   3.8261957920179E-05
(PID.TID 0000.0001) %MON dynstat_vvel_max             =   7.0652963220815E-02
(PID.TID 0000.0001) %MON dynstat_vvel_min             =  -5.0591078407867E-02
(PID.TID 0000.0001) %MON dynstat_vvel_mean            =   2.1621207018639E-07
(PID.TID 0000.0001) %MON dynstat_vvel_sd              =   2.0152806957910E-02
(PID.TID 0000.0001) %MON dynstat_vvel_del2            =   4.4908158349700E-05
(PID.TID 0000.0001) %MON dynstat_wvel_max             =   2.2983795060936E-08
(PID.TID 0000.0001) %MON dynstat_wvel_min             =  -1.3481545875256E-08
(PID.TID 0000.0001) %MON dynstat_wvel_mean            =   3.3693494414264E-21
(PID.TID 0000.0001) %MON dynstat_wvel_sd              =   9.0103592253355E-09
(PID.TID 0000.0001) %MON dynstat_wvel_del2            =   4.4022208227560E-12
(PID.TID 0000.0001) %MON dynstat_theta_max            =   2.0000000000000E+01
(PID.TID 0000.0001) %MON dynstat_theta_min            =   2.0000000000000E+01
(PID.TID 0000.0001) %MON dynstat_theta_mean           =   2.0000000000000E+01
(PID.TID 0000.0001) %MON dynstat_theta_sd             =   3.8014036363165E-13
(PID.TID 0000.0001) %MON dynstat_theta_del2           =   0.0000000000000E+00
(PID.TID 0000.0001) %MON dynstat_salt_max             =   3.0000000000000E+01
(PID.TID 0000.0001) %MON dynstat_salt_min             =   3.0000000000000E+01
(PID.TID 0000.0001) %MON dynstat_salt_mean            =   2.9999999999999E+01
(PID.TID 0000.0001) %MON dynstat_salt_sd              =   5.5777604757167E-13
(PID.TID 0000.0001) %MON dynstat_salt_del2            =   0.0000000000000E+00
(PID.TID 0000.0001) %MON trAdv_CFL_u_max              =   4.8209403273853E-03
(PID.TID 0000.0001) %MON trAdv_CFL_v_max              =   4.2379698806896E-03
(PID.TID 0000.0001) %MON trAdv_CFL_w_max              =   6.1179945825149E-09
(PID.TID 0000.0001) %MON advcfl_uvel_max              =   4.8233941266187E-03
(PID.TID 0000.0001) %MON advcfl_vvel_max              =   4.2391777932489E-03
(PID.TID 0000.0001) %MON advcfl_wvel_max              =   1.1032221629249E-08
(PID.TID 0000.0001) %MON advcfl_W_hf_max              =   0.0000000000000E+00
(PID.TID 0000.0001) %MON pe_b_mean                    =   2.5454987534179E-06
(PID.TID 0000.0001) %MON ke_max                       =   3.2312744236144E-03
(PID.TID 0000.0001) %MON ke_mean                      =   4.3787028757556E-04
(PID.TID 0000.0001) %MON ke_vol                       =   6.8893493896486E+15
(PID.TID 0000.0001) %MON vort_r_min                   =  -8.0939378078456E-07
(PID.TID 0000.0001) %MON vort_r_max                   =   1.8633778520211E-06
(PID.TID 0000.0001) %MON vort_a_mean                  =   1.0600000000000E-04
(PID.TID 0000.0001) %MON vort_a_sd                    =   3.5352964372119E-06
(PID.TID 0000.0001) %MON vort_p_mean                  =   1.1652272308690E-04
(PID.TID 0000.0001) %MON vort_p_sd                    =   4.1758866389730E-05
(PID.TID 0000.0001) %MON surfExpan_theta_mean         =   6.7499033523038E-20
(PID.TID 0000.0001) %MON surfExpan_salt_mean          =   1.0126434012313E-19
(PID.TID 0000.0001) // =======================================================
(PID.TID 0000.0001) // End MONITOR dynamic field statistics
(PID.TID 0000.0001) // =======================================================
 cg2d: Sum(rhs),rhsMax =  -1.02898261056761E-03  1.13190479781944E-01
 cg2d: Sum(rhs),rhsMax =  -1.02887739991267E-03  1.13218919398056E-01
 cg2d: Sum(rhs),rhsMax =  -1.02877233295971E-03  1.13247326860594E-01
 cg2d: Sum(rhs),rhsMax =  -1.02866741711752E-03  1.13275702104089E-01
 cg2d: Sum(rhs),rhsMax =  -1.02856265903141E-03  1.13304045063187E-01
 cg2d: Sum(rhs),rhsMax =  -1.02845806535623E-03  1.13332355672630E-01
 cg2d: Sum(rhs),rhsMax =  -1.02835364320423E-03  1.13360633867274E-01
 cg2d: Sum(rhs),rhsMax =  -1.02824939929669E-03  1.13388879582069E-01
 cg2d: Sum(rhs),rhsMax =  -1.02814534044438E-03  1.13417092752074E-01
 cg2d: Sum(rhs),rhsMax =  -1.02804147318614E-03  1.13445273312454E-01
 cg2d: Sum(rhs),rhsMax =  -1.02793780474084E-03  1.13473421198473E-01
 cg2d: Sum(rhs),rhsMax =  -1.02783434172898E-03  1.13501536345505E-01
 cg2d: Sum(rhs),rhsMax =  -1.02773109132270E-03  1.13529618689029E-01
 cg2d: Sum(rhs),rhsMax =  -1.02762805980871E-03  1.13557668164627E-01
 cg2d: Sum(rhs),rhsMax =  -1.02752525403216E-03  1.13585684707986E-01
 cg2d: Sum(rhs),rhsMax =  -1.02742268087854E-03  1.13613668254900E-01
 cg2d: Sum(rhs),rhsMax =  -1.02732034753873E-03  1.13641618741268E-01
 cg2d: Sum(rhs),rhsMax =  -1.02721826056243E-03  1.13669536103095E-01
 cg2d: Sum(rhs),rhsMax =  -1.02711642671609E-03  1.13697420276494E-01
 cg2d: Sum(rhs),rhsMax =  -1.02701485292977E-03  1.13725271197681E-01
 cg2d: Sum(rhs),rhsMax =  -1.02691354573879E-03  1.13753088802977E-01
 cg2d: Sum(rhs),rhsMax =  -1.02681251209717E-03  1.13780873028814E-01
 cg2d: Sum(rhs),rhsMax =  -1.02671175837828E-03  1.13808623811727E-01
 cg2d: Sum(rhs),rhsMax =  -1.02661129171058E-03  1.13836341088360E-01
 cg2d: Sum(rhs),rhsMax =  -1.02651111894083E-03  1.13864024795463E-01
 cg2d: Sum(rhs),rhsMax =  -1.02641124617201E-03  1.13891674869894E-01
 cg2d: Sum(rhs),rhsMax =  -1.02631168074665E-03  1.13919291248613E-01
 cg2d: Sum(rhs),rhsMax =  -1.02621242894713E-03  1.13946873868696E-01
 cg2d: Sum(rhs),rhsMax =  -1.02611349796648E-03  1.13974422667319E-01
 cg2d: Sum(rhs),rhsMax =  -1.02601489405257E-03  1.14001937581770E-01
 cg2d: Sum(rhs),rhsMax =  -1.02591662427678E-03  1.14029418549444E-01
 cg2d: Sum(rhs),rhsMax =  -1.02581869503424E-03  1.14056865507842E-01
 cg2d: Sum(rhs),rhsMax =  -1.02572111284486E-03  1.14084278394576E-01
 cg2d: Sum(rhs),rhsMax =  -1.02562388484012E-03  1.14111657147364E-01
 cg2d: Sum(rhs),rhsMax =  -1.02552701703445E-03  1.14139001704034E-01
 cg2d: Sum(rhs),rhsMax =  -1.02543051640218E-03  1.14166312002521E-01
 cg2d: Sum(rhs),rhsMax =  -1.02533438970111E-03  1.14193587980866E-01
 cg2d: Sum(rhs),rhsMax =  -1.02523864300895E-03  1.14220829577229E-01
 cg2d: Sum(rhs),rhsMax =  -1.02514328311383E-03  1.14248036729869E-01
 cg2d: Sum(rhs),rhsMax =  -1.02504831679166E-03  1.14275209377154E-01
 cg2d: Sum(rhs),rhsMax =  -1.02495375018233E-03  1.14302347457572E-01
 cg2d: Sum(rhs),rhsMax =  -1.02485959004456E-03  1.14329450909706E-01
 cg2d: Sum(rhs),rhsMax =  -1.02476584280462E-03  1.14356519672262E-01
 cg2d: Sum(rhs),rhsMax =  -1.02467251507433E-03  1.14383553684047E-01
 cg2d: Sum(rhs),rhsMax =  -1.02457961318349E-03  1.14410552883979E-01
 cg2d: Sum(rhs),rhsMax =  -1.02448714337014E-03  1.14437517211087E-01
 cg2d: Sum(rhs),rhsMax =  -1.02439511208834E-03  1.14464446604512E-01
 cg2d: Sum(rhs),rhsMax =  -1.02430352626516E-03  1.14491341003506E-01
 cg2d: Sum(rhs),rhsMax =  -1.02421239178707E-03  1.14518200347425E-01
 cg2d: Sum(rhs),rhsMax =  -1.02412171507396E-03  1.14545024575745E-01
 cg2d: Sum(rhs),rhsMax =  -1.02403150250673E-03  1.14571813628044E-01
 cg2d: Sum(rhs),rhsMax =  -1.02394176061905E-03  1.14598567444014E-01
 cg2d: Sum(rhs),rhsMax =  -1.02385249566901E-03  1.14625285963462E-01
 cg2d: Sum(rhs),rhsMax =  -1.02376371346170E-03  1.14651969126299E-01
 cg2d: Sum(rhs),rhsMax =  -1.02367542063935E-03  1.14678616872557E-01
 cg2d: Sum(rhs),rhsMax =  -1.02358762334225E-03  1.14705229142368E-01
 cg2d: Sum(rhs),rhsMax =  -1.02350032752046E-03  1.14731805875983E-01
 cg2d: Sum(rhs),rhsMax =  -1.02341353970276E-03  1.14758347013764E-01
 cg2d: Sum(rhs),rhsMax =  -1.02332726600830E-03  1.14784852496183E-01
 cg2d: Sum(rhs),rhsMax =  -1.02324151232953E-03  1.14811322263825E-01
 cg2d: Sum(rhs),rhsMax =  -1.02315628505713E-03  1.14837756257385E-01
 cg2d: Sum(rhs),rhsMax =  -1.02307159016599E-03  1.14864154417676E-01
 cg2d: Sum(rhs),rhsMax =  -1.02298743375070E-03  1.14890516685618E-01
 cg2d: Sum(rhs),rhsMax =  -1.02290382154522E-03  1.14916843002248E-01
 cg2d: Sum(rhs),rhsMax =  -1.02282075995777E-03  1.14943133308708E-01
 cg2d: Sum(rhs),rhsMax =  -1.02273825461398E-03  1.14969387546260E-01
 cg2d: Sum(rhs),rhsMax =  -1.02265631213320E-03  1.14995605656280E-01
 cg2d: Sum(rhs),rhsMax =  -1.02257493748192E-03  1.15021787580250E-01
 cg2d: Sum(rhs),rhsMax =  -1.02249413708631E-03  1.15047933259774E-01
 cg2d: Sum(rhs),rhsMax =  -1.02241391665893E-03  1.15074042636557E-01
 cg2d: Sum(rhs),rhsMax =  -1.02233428238011E-03  1.15100115652433E-01
 cg2d: Sum(rhs),rhsMax =  -1.02225523972504E-03  1.15126152249338E-01
(PID.TID 0000.0001)      cg2d_init_res =   2.33943401910557E-03
(PID.TID 0000.0001)      cg2d_iters(min,last) =      -1      83
(PID.TID 0000.0001)      cg2d_last_res =   7.27366115511719E-08
(PID.TID 0000.0001) // =======================================================
(PID.TID 0000.0001) // Begin MONITOR dynamic field statistics
(PID.TID 0000.0001) // =======================================================
(PID.TID 0000.0001) %MON time_tsnumber                =                  4320
(PID.TID 0000.0001) %MON time_secondsf                =   5.1840000000000E+06
(PID.TID 0000.0001) %MON dynstat_eta_max              =   1.1769325841163E-01
(PID.TID 0000.0001) %MON dynstat_eta_min              =  -5.4081427597073E-02
(PID.TID 0000.0001) %MON dynstat_eta_mean             =   5.8822772626349E-07
(PID.TID 0000.0001) %MON dynstat_eta_sd               =   5.0512128487781E-02
(PID.TID 0000.0001) %MON dynstat_eta_del2             =   1.7587301715120E-05
(PID.TID 0000.0001) %MON dynstat_uvel_max             =   8.1107956263156E-02
(PID.TID 0000.0001) %MON dynstat_uvel_min             =  -3.5551103360070E-02
(PID.TID 0000.0001) %MON dynstat_uvel_mean            =  -8.8011894189937E-08
(PID.TID 0000.0001) %MON dynstat_uvel_sd              =   2.2293128584667E-02
(PID.TID 0000.0001) %MON dynstat_uvel_del2            =   3.8724721122395E-05
(PID.TID 0000.0001) %MON dynstat_vvel_max             =   7.2057508723409E-02
(PID.TID 0000.0001) %MON dynstat_vvel_min             =  -5.1507861878731E-02
(PID.TID 0000.0001) %MON dynstat_vvel_mean            =   2.1441550096305E-07
(PID.TID 0000.0001) %MON dynstat_vvel_sd              =   2.0405539200153E-02
(PID.TID 0000.0001) %MON dynstat_vvel_del2            =   4.5337226605033E-05
(PID.TID 0000.0001) %MON dynstat_wvel_max             =   2.2776184104005E-08
(PID.TID 0000.0001) %MON dynstat_wvel_min             =  -1.3472938791965E-08
(PID.TID 0000.0001) %MON dynstat_wvel_mean            =   4.9616179846150E-21
(PID.TID 0000.0001) %MON dynstat_wvel_sd              =   8.9184930735048E-09
(PID.TID 0000.0001) %MON dynstat_wvel_del2            =   4.3759605460356E-12
(PID.TID 0000.0001) %MON dynstat_theta_max            =   2.0000000000000E+01
(PID.TID 0000.0001) %MON dynstat_theta_min            =   2.0000000000000E+01
(PID.TID 0000.0001) %MON dynstat_theta_mean           =   2.0000000000000E+01
(PID.TID 0000.0001) %MON dynstat_theta_sd             =   3.8014036363165E-13
(PID.TID 0000.0001) %MON dynstat_theta_del2           =   0.0000000000000E+00
(PID.TID 0000.0001) %MON dynstat_salt_max             =   3.0000000000000E+01
(PID.TID 0000.0001) %MON dynstat_salt_min             =   3.0000000000000E+01
(PID.TID 0000.0001) %MON dynstat_salt_mean            =   2.9999999999999E+01
(PID.TID 0000.0001) %MON dynstat_salt_sd              =   5.5777604757167E-13
(PID.TID 0000.0001) %MON dynstat_salt_del2            =   0.0000000000000E+00
(PID.TID 0000.0001) %MON trAdv_CFL_u_max              =   4.8639986211659E-03
(PID.TID 0000.0001) %MON trAdv_CFL_v_max              =   4.3223191067754E-03
(PID.TID 0000.0001) %MON trAdv_CFL_w_max              =   6.0657877075535E-09
(PID.TID 0000.0001) %MON advcfl_uvel_max              =   4.8664773757894E-03
(PID.TID 0000.0001) %MON advcfl_vvel_max              =   4.3234505234045E-03
(PID.TID 0000.0001) %MON advcfl_wvel_max              =   1.0932568369922E-08
(PID.TID 0000.0001) %MON advcfl_W_hf_max              =   0.0000000000000E+00
(PID.TID 0000.0001) %MON pe_b_mean                    =   2.6158608137867E-06
(PID.TID 0000.0001) %MON ke_max                       =   3.2890320110422E-03
(PID.TID 0000.0001) %MON ke_mean                      =   4.4828700454102E-04
(PID.TID 0000.0001) %MON ke_vol                       =   6.8893493896486E+15
(PID.TID 0000.0001) %MON vort_r_min                   =  -8.1768438301474E-07
(PID.TID 0000.0001) %MON vort_r_max                   =   1.8910461316636E-06
(PID.TID 0000.0001) %MON vort_a_mean                  =   1.0600000000000E-04
(PID.TID 0000.0001) %MON vort_a_sd                    =   3.5356542341851E-06
(PID.TID 0000.0001) %MON vort_p_mean                  =   1.1652272308690E-04
(PID.TID 0000.0001) %MON vort_p_sd                    =   4.1759716035113E-05
(PID.TID 0000.0001) %MON surfExpan_theta_mean         =   9.9328190117376E-20
(PID.TID 0000.0001) %MON surfExpan_salt_mean          =   1.4899481155024E-19
(PID.TID 0000.0001) // =======================================================
(PID.TID 0000.0001) // End MONITOR dynamic field statistics
(PID.TID 0000.0001) // =======================================================
 cg2d: Sum(rhs),rhsMax =  -1.02217679469857E-03  1.15152152369329E-01
 cg2d: Sum(rhs),rhsMax =  -1.02209895295097E-03  1.15178115954569E-01
 cg2d: Sum(rhs),rhsMax =  -1.02202172025762E-03  1.15204042947343E-01
 cg2d: Sum(rhs),rhsMax =  -1.02194510208245E-03  1.15229933290049E-01
 cg2d: Sum(rhs),rhsMax =  -1.02186910437329E-03  1.15255786925193E-01
 cg2d: Sum(rhs),rhsMax =  -1.02179373263745E-03  1.15281603795400E-01
 cg2d: Sum(rhs),rhsMax =  -1.02171899265769E-03  1.15307383843413E-01
 cg2d: Sum(rhs),rhsMax =  -1.02164489020704E-03  1.15333127012085E-01
 cg2d: Sum(rhs),rhsMax =  -1.02157143015833E-03  1.15358833244382E-01
 cg2d: Sum(rhs),rhsMax =  -1.02149861883464E-03  1.15384502483392E-01
 cg2d: Sum(rhs),rhsMax =  -1.02142646133009E-03  1.15410134672313E-01
 cg2d: Sum(rhs),rhsMax =  -1.02135496312094E-03  1.15435729754457E-01
 cg2d: Sum(rhs),rhsMax =  -1.02128413003929E-03  1.15461287673260E-01
 cg2d: Sum(rhs),rhsMax =  -1.02121396674193E-03  1.15486808372259E-01
 cg2d: Sum(rhs),rhsMax =  -1.02114447927596E-03  1.15512291795121E-01
 cg2d: Sum(rhs),rhsMax =  -1.02107567299537E-03  1.15537737885623E-01
 cg2d: Sum(rhs),rhsMax =  -1.02100755270027E-03  1.15563146587655E-01
 cg2d: Sum(rhs),rhsMax =  -1.02094012394414E-03  1.15588517845229E-01
 cg2d: Sum(rhs),rhsMax =  -1.02087339244606E-03  1.15613851602466E-01
 cg2d: Sum(rhs),rhsMax =  -1.02080736291411E-03  1.15639147803609E-01
 cg2d: Sum(rhs),rhsMax =  -1.02074204054407E-03  1.15664406393019E-01
 cg2d: Sum(rhs),rhsMax =  -1.02067743105945E-03  1.15689627315165E-01
 cg2d: Sum(rhs),rhsMax =  -1.02061353920687E-03  1.15714810514642E-01
 cg2d: Sum(rhs),rhsMax =  -1.02055037040205E-03  1.15739955936153E-01
 cg2d: Sum(rhs),rhsMax =  -1.02048792914589E-03  1.15765063524529E-01
 cg2d: Sum(rhs),rhsMax =  -1.02042622135542E-03  1.15790133224706E-01
 cg2d: Sum(rhs),rhsMax =  -1.02036525125416E-03  1.15815164981747E-01
 cg2d: Sum(rhs),rhsMax =  -1.02030502461517E-03  1.15840158740827E-01
 cg2d: Sum(rhs),rhsMax =  -1.02024554582269E-03  1.15865114447239E-01
 cg2d: Sum(rhs),rhsMax =  -1.02018681999206E-03  1.15890032046395E-01
 cg2d: Sum(rhs),rhsMax =  -1.02012885203855E-03  1.15914911483824E-01
 cg2d: Sum(rhs),rhsMax =  -1.02007164701161E-03  1.15939752705175E-01
 cg2d: Sum(rhs),rhsMax =  -1.02001520971805E-03  1.15964555656207E-01
 cg2d: Sum(rhs),rhsMax =  -1.01995954497212E-03  1.15989320282808E-01
 cg2d: Sum(rhs),rhsMax =  -1.01990465782777E-03  1.16014046530977E-01
 cg2d: Sum(rhs),rhsMax =  -1.01985055245410E-03  1.16038734346830E-01
 cg2d: Sum(rhs),rhsMax =  -1.01979723446343E-03  1.16063383676611E-01
 cg2d: Sum(rhs),rhsMax =  -1.01974470760774E-03  1.16087994466673E-01
 cg2d: Sum(rhs),rhsMax =  -1.01969297739151E-03  1.16112566663488E-01
 cg2d: Sum(rhs),rhsMax =  -1.01964204839086E-03  1.16137100213654E-01
 cg2d: Sum(rhs),rhsMax =  -1.01959192479361E-03  1.16161595063880E-01
 cg2d: Sum(rhs),rhsMax =  -1.01954261180177E-03  1.16186051161004E-01
 cg2d: Sum(rhs),rhsMax =  -1.01949411347263E-03  1.16210468451968E-01
 cg2d: Sum(rhs),rhsMax =  -1.01944643457896E-03  1.16234846883847E-01
 cg2d: Sum(rhs),rhsMax =  -1.01939958002493E-03  1.16259186403830E-01
 cg2d: Sum(rhs),rhsMax =  -1.01935355386020E-03  1.16283486959222E-01
 cg2d: Sum(rhs),rhsMax =  -1.01930836075953E-03  1.16307748497458E-01
 cg2d: Sum(rhs),rhsMax =  -1.01926400529488E-03  1.16331970966081E-01
 cg2d: Sum(rhs),rhsMax =  -1.01922049158041E-03  1.16356154312764E-01
 cg2d: Sum(rhs),rhsMax =  -1.01917782445480E-03  1.16380298485287E-01
 cg2d: Sum(rhs),rhsMax =  -1.01913600814714E-03  1.16404403431563E-01
 cg2d: Sum(rhs),rhsMax =  -1.01909504687124E-03  1.16428469099621E-01
 cg2d: Sum(rhs),rhsMax =  -1.01905494535616E-03  1.16452495437608E-01
 cg2d: Sum(rhs),rhsMax =  -1.01901570767721E-03  1.16476482393794E-01
 cg2d: Sum(rhs),rhsMax =  -1.01897733834971E-03  1.16500429916565E-01
 cg2d: Sum(rhs),rhsMax =  -1.01893984115528E-03  1.16524337954436E-01
 cg2d: Sum(rhs),rhsMax =  -1.01890322050933E-03  1.16548206456036E-01
 cg2d: Sum(rhs),rhsMax =  -1.01886748086918E-03  1.16572035370115E-01
 cg2d: Sum(rhs),rhsMax =  -1.01883262665991E-03  1.16595824645549E-01
 cg2d: Sum(rhs),rhsMax =  -1.01879866168827E-03  1.16619574231329E-01
 cg2d: Sum(rhs),rhsMax =  -1.01876559009530E-03  1.16643284076574E-01
 cg2d: Sum(rhs),rhsMax =  -1.01873341638719E-03  1.16666954130514E-01
 cg2d: Sum(rhs),rhsMax =  -1.01870214459003E-03  1.16690584342513E-01
 cg2d: Sum(rhs),rhsMax =  -1.01867177846657E-03  1.16714174662049E-01
 cg2d: Sum(rhs),rhsMax =  -1.01864232285502E-03  1.16737725038724E-01
 cg2d: Sum(rhs),rhsMax =  -1.01861378087852E-03  1.16761235422259E-01
 cg2d: Sum(rhs),rhsMax =  -1.01858615696917E-03  1.16784705762497E-01
 cg2d: Sum(rhs),rhsMax =  -1.01855945551559E-03  1.16808136009408E-01
 cg2d: Sum(rhs),rhsMax =  -1.01853319559176E-03  1.16831581725990E-01
 cg2d: Sum(rhs),rhsMax =  -1.01847547009790E-03  1.16858704206301E-01
 cg2d: Sum(rhs),rhsMax =  -1.01841864326012E-03  1.16885792424041E-01
 cg2d: Sum(rhs),rhsMax =  -1.01836271955710E-03  1.16912846320025E-01
(PID.TID 0000.0001)      cg2d_init_res =   2.30072448032171E-03
(PID.TID 0000.0001)      cg2d_iters(min,last) =      -1      83
(PID.TID 0000.0001)      cg2d_last_res =   7.51040869311228E-08
(PID.TID 0000.0001) // =======================================================
(PID.TID 0000.0001) // Begin MONITOR dynamic field statistics
(PID.TID 0000.0001) // =======================================================
(PID.TID 0000.0001) %MON time_tsnumber                =                  4392
(PID.TID 0000.0001) %MON time_secondsf                =   5.2704000000000E+06
(PID.TID 0000.0001) %MON dynstat_eta_max              =   1.1931631520263E-01
(PID.TID 0000.0001) %MON dynstat_eta_min              =  -5.4570070458362E-02
(PID.TID 0000.0001) %MON dynstat_eta_mean             =   5.9509874420984E-07
(PID.TID 0000.0001) %MON dynstat_eta_sd               =   5.1190051164452E-02
(PID.TID 0000.0001) %MON dynstat_eta_del2             =   1.7781295945500E-05
(PID.TID 0000.0001) %MON dynstat_uvel_max             =   8.1837601240647E-02
(PID.TID 0000.0001) %MON dynstat_uvel_min             =  -3.6338435972984E-02
(PID.TID 0000.0001) %MON dynstat_uvel_mean            =  -9.4963317582496E-08
(PID.TID 0000.0001) %MON dynstat_uvel_sd              =   2.2540652653636E-02
(PID.TID 0000.0001) %MON dynstat_uvel_del2            =   3.9191635706520E-05
(PID.TID 0000.0001) %MON dynstat_vvel_max             =   7.3388114828202E-02
(PID.TID 0000.0001) %MON dynstat_vvel_min             =  -5.2410631515148E-02
(PID.TID 0000.0001) %MON dynstat_vvel_mean            =   2.1301207926011E-07
(PID.TID 0000.0001) %MON dynstat_vvel_sd              =   2.0655058968458E-02
(PID.TID 0000.0001) %MON dynstat_vvel_del2            =   4.5740072496207E-05
(PID.TID 0000.0001) %MON dynstat_wvel_max             =   2.2559284588569E-08
(PID.TID 0000.0001) %MON dynstat_wvel_min             =  -1.3433705965290E-08
(PID.TID 0000.0001) %MON dynstat_wvel_mean            =  -5.7830420195791E-21
(PID.TID 0000.0001) %MON dynstat_wvel_sd              =   8.8270114213820E-09
(PID.TID 0000.0001) %MON dynstat_wvel_del2            =   4.3501061089364E-12
(PID.TID 0000.0001) %MON dynstat_theta_max            =   2.0000000000000E+01
(PID.TID 0000.0001) %MON dynstat_theta_min            =   2.0000000000000E+01
(PID.TID 0000.0001) %MON dynstat_theta_mean           =   2.0000000000000E+01
(PID.TID 0000.0001) %MON dynstat_theta_sd             =   3.8014036363165E-13
(PID.TID 0000.0001) %MON dynstat_theta_del2           =   0.0000000000000E+00
(PID.TID 0000.0001) %MON dynstat_salt_max             =   3.0000000000000E+01
(PID.TID 0000.0001) %MON dynstat_salt_min             =   3.0000000000000E+01
(PID.TID 0000.0001) %MON dynstat_salt_mean            =   2.9999999999999E+01
(PID.TID 0000.0001) %MON dynstat_salt_sd              =   5.5777604757167E-13
(PID.TID 0000.0001) %MON dynstat_salt_del2            =   0.0000000000000E+00
(PID.TID 0000.0001) %MON trAdv_CFL_u_max              =   4.9077495502474E-03
(PID.TID 0000.0001) %MON trAdv_CFL_v_max              =   4.4021111416229E-03
(PID.TID 0000.0001) %MON trAdv_CFL_w_max              =   6.0081020204761E-09
(PID.TID 0000.0001) %MON advcfl_uvel_max              =   4.9102560744388E-03
(PID.TID 0000.0001) %MON advcfl_vvel_max              =   4.4032868896921E-03
(PID.TID 0000.0001) %MON advcfl_wvel_max              =   1.0828456602513E-08
(PID.TID 0000.0001) %MON advcfl_W_hf_max              =   0.0000000000000E+00
(PID.TID 0000.0001) %MON pe_b_mean                    =   2.6865468641235E-06
(PID.TID 0000.0001) %MON ke_max                       =   3.3481737331235E-03
(PID.TID 0000.0001) %MON ke_mean                      =   4.5876220706256E-04
(PID.TID 0000.0001) %MON ke_vol                       =   6.8893493896486E+15
(PID.TID 0000.0001) %MON vort_r_min                   =  -8.2673787856385E-07
(PID.TID 0000.0001) %MON vort_r_max                   =   1.9153962087994E-06
(PID.TID 0000.0001) %MON vort_a_mean                  =   1.0600000000000E-04
(PID.TID 0000.0001) %MON vort_a_sd                    =   3.5360086093737E-06
(PID.TID 0000.0001) %MON vort_p_mean                  =   1.1652272308690E-04
(PID.TID 0000.0001) %MON vort_p_sd                    =   4.1760534525054E-05
(PID.TID 0000.0001) %MON surfExpan_theta_mean         =  -1.1569530518803E-19
(PID.TID 0000.0001) %MON surfExpan_salt_mean          =  -1.7352969431765E-19
(PID.TID 0000.0001) // =======================================================
(PID.TID 0000.0001) // End MONITOR dynamic field statistics
(PID.TID 0000.0001) // =======================================================
 cg2d: Sum(rhs),rhsMax =  -1.01830770244691E-03  1.16939865835160E-01
 cg2d: Sum(rhs),rhsMax =  -1.01825359640928E-03  1.16966850910466E-01
 cg2d: Sum(rhs),rhsMax =  -1.01820040451757E-03  1.16993801487056E-01
 cg2d: Sum(rhs),rhsMax =  -1.01814813161287E-03  1.17020717506152E-01
 cg2d: Sum(rhs),rhsMax =  -1.01809678061836E-03  1.17047598909071E-01
 cg2d: Sum(rhs),rhsMax =  -1.01804635617492E-03  1.17074445637245E-01
 cg2d: Sum(rhs),rhsMax =  -1.01799686205558E-03  1.17101257632194E-01
 cg2d: Sum(rhs),rhsMax =  -1.01794830181928E-03  1.17128034835547E-01
 cg2d: Sum(rhs),rhsMax =  -1.01790067930072E-03  1.17154777189043E-01
 cg2d: Sum(rhs),rhsMax =  -1.01785399825392E-03  1.17181484634508E-01
 cg2d: Sum(rhs),rhsMax =  -1.01780826283057E-03  1.17208157113889E-01
 cg2d: Sum(rhs),rhsMax =  -1.01776347659050E-03  1.17234794569225E-01
 cg2d: Sum(rhs),rhsMax =  -1.01771964338821E-03  1.17261396942661E-01
 cg2d: Sum(rhs),rhsMax =  -1.01767676695293E-03  1.17287964176447E-01
 cg2d: Sum(rhs),rhsMax =  -1.01763485123844E-03  1.17314496212934E-01
 cg2d: Sum(rhs),rhsMax =  -1.01759389926562E-03  1.17340992994581E-01
 cg2d: Sum(rhs),rhsMax =  -1.01755391572426E-03  1.17367454463944E-01
 cg2d: Sum(rhs),rhsMax =  -1.01751490387047E-03  1.17393880563689E-01
 cg2d: Sum(rhs),rhsMax =  -1.01747686754507E-03  1.17420271236592E-01
 cg2d: Sum(rhs),rhsMax =  -1.01743981021803E-03  1.17446626425516E-01
 cg2d: Sum(rhs),rhsMax =  -1.01740373570329E-03  1.17472946073446E-01
 cg2d: Sum(rhs),rhsMax =  -1.01736864757731E-03  1.17499230123458E-01
 cg2d: Sum(rhs),rhsMax =  -1.01733454943324E-03  1.17525478518742E-01
 cg2d: Sum(rhs),rhsMax =  -1.01730144544697E-03  1.17551691202593E-01
 cg2d: Sum(rhs),rhsMax =  -1.01726933919294E-03  1.17577868118404E-01
 cg2d: Sum(rhs),rhsMax =  -1.01723823397668E-03  1.17604009209678E-01
 cg2d: Sum(rhs),rhsMax =  -1.01720813364642E-03  1.17630114420022E-01
 cg2d: Sum(rhs),rhsMax =  -1.01717904175082E-03  1.17656183693148E-01
 cg2d: Sum(rhs),rhsMax =  -1.01715096192130E-03  1.17682216972874E-01
 cg2d: Sum(rhs),rhsMax =  -1.01712389810169E-03  1.17708214203127E-01
 cg2d: Sum(rhs),rhsMax =  -1.01709785365179E-03  1.17734175327933E-01
 cg2d: Sum(rhs),rhsMax =  -1.01707283216920E-03  1.17760100291427E-01
 cg2d: Sum(rhs),rhsMax =  -1.01704883769542E-03  1.17785989037853E-01
 cg2d: Sum(rhs),rhsMax =  -1.01702587353844E-03  1.17811841511557E-01
 cg2d: Sum(rhs),rhsMax =  -1.01700394326560E-03  1.17837657656993E-01
 cg2d: Sum(rhs),rhsMax =  -1.01698305019686E-03  1.17863437418721E-01
 cg2d: Sum(rhs),rhsMax =  -1.01696319847591E-03  1.17889180741408E-01
 cg2d: Sum(rhs),rhsMax =  -1.01694439145634E-03  1.17914887569825E-01
 cg2d: Sum(rhs),rhsMax =  -1.01692663316630E-03  1.17940557848856E-01
 cg2d: Sum(rhs),rhsMax =  -1.01690992654026E-03  1.17966191523485E-01
 cg2d: Sum(rhs),rhsMax =  -1.01689427582820E-03  1.17991788538807E-01
 cg2d: Sum(rhs),rhsMax =  -1.01687968439765E-03  1.18017348840023E-01
 cg2d: Sum(rhs),rhsMax =  -1.01686615562705E-03  1.18042872372441E-01
 cg2d: Sum(rhs),rhsMax =  -1.01685369313434E-03  1.18068359081474E-01
 cg2d: Sum(rhs),rhsMax =  -1.01684230092519E-03  1.18093808912650E-01
 cg2d: Sum(rhs),rhsMax =  -1.01683198228315E-03  1.18119221811596E-01
 cg2d: Sum(rhs),rhsMax =  -1.01682274117295E-03  1.18144597724051E-01
 cg2d: Sum(rhs),rhsMax =  -1.01681458055188E-03  1.18169936595862E-01
 cg2d: Sum(rhs),rhsMax =  -1.01680750454049E-03  1.18195238372980E-01
 cg2d: Sum(rhs),rhsMax =  -1.01680151657692E-03  1.18220503001474E-01
 cg2d: Sum(rhs),rhsMax =  -1.01679662033191E-03  1.18245730427508E-01
 cg2d: Sum(rhs),rhsMax =  -1.01679281933076E-03  1.18270920597366E-01
 cg2d: Sum(rhs),rhsMax =  -1.01679011742501E-03  1.18296073457432E-01
 cg2d: Sum(rhs),rhsMax =  -1.01678851814768E-03  1.18321188954199E-01
 cg2d: Sum(rhs),rhsMax =  -1.01678802477240E-03  1.18346267034275E-01
 cg2d: Sum(rhs),rhsMax =  -1.01678864134159E-03  1.18371307644374E-01
 cg2d: Sum(rhs),rhsMax =  -1.01679037134926E-03  1.18396310731317E-01
 cg2d: Sum(rhs),rhsMax =  -1.01679321827757E-03  1.18421276242034E-01
 cg2d: Sum(rhs),rhsMax =  -1.01679718573543E-03  1.18446204123568E-01
 cg2d: Sum(rhs),rhsMax =  -1.01680227764363E-03  1.18471094323066E-01
 cg2d: Sum(rhs),rhsMax =  -1.01680849730681E-03  1.18495946787790E-01
 cg2d: Sum(rhs),rhsMax =  -1.01681584844253E-03  1.18520761465103E-01
 cg2d: Sum(rhs),rhsMax =  -1.01682433503867E-03  1.18545538302489E-01
 cg2d: Sum(rhs),rhsMax =  -1.01683396035796E-03  1.18570277247532E-01
 cg2d: Sum(rhs),rhsMax =  -1.01684472827089E-03  1.18594978247933E-01
 cg2d: Sum(rhs),rhsMax =  -1.01685664226386E-03  1.18619641251496E-01
 cg2d: Sum(rhs),rhsMax =  -1.01686970581314E-03  1.18644266206139E-01
 cg2d: Sum(rhs),rhsMax =  -1.01688392296269E-03  1.18668853059893E-01
 cg2d: Sum(rhs),rhsMax =  -1.01689929729964E-03  1.18693401760895E-01
 cg2d: Sum(rhs),rhsMax =  -1.01691583237363E-03  1.18717912257389E-01
 cg2d: Sum(rhs),rhsMax =  -1.01693353195406E-03  1.18742384497740E-01
 cg2d: Sum(rhs),rhsMax =  -1.01695239951387E-03  1.18766818430416E-01
(PID.TID 0000.0001)      cg2d_init_res =   2.26099126029777E-03
(PID.TID 0000.0001)      cg2d_iters(min,last) =      -1      83
(PID.TID 0000.0001)      cg2d_last_res =   7.95212459569189E-08
(PID.TID 0000.0001) // =======================================================
(PID.TID 0000.0001) // Begin MONITOR dynamic field statistics
(PID.TID 0000.0001) // =======================================================
(PID.TID 0000.0001) %MON time_tsnumber                =                  4464
(PID.TID 0000.0001) %MON time_secondsf                =   5.3568000000000E+06
(PID.TID 0000.0001) %MON dynstat_eta_max              =   1.2096176555981E-01
(PID.TID 0000.0001) %MON dynstat_eta_min              =  -5.5049163466663E-02
(PID.TID 0000.0001) %MON dynstat_eta_mean             =   6.0372744314540E-07
(PID.TID 0000.0001) %MON dynstat_eta_sd               =   5.1861681297941E-02
(PID.TID 0000.0001) %MON dynstat_eta_del2             =   1.7970603612843E-05
(PID.TID 0000.0001) %MON dynstat_uvel_max             =   8.2581741791840E-02
(PID.TID 0000.0001) %MON dynstat_uvel_min             =  -3.7148287610963E-02
(PID.TID 0000.0001) %MON dynstat_uvel_mean            =  -1.0139004104498E-07
(PID.TID 0000.0001) %MON dynstat_uvel_sd              =   2.2788541870179E-02
(PID.TID 0000.0001) %MON dynstat_uvel_del2            =   3.9663653224746E-05
(PID.TID 0000.0001) %MON dynstat_vvel_max             =   7.4748309188096E-02
(PID.TID 0000.0001) %MON dynstat_vvel_min             =  -5.3294744467242E-02
(PID.TID 0000.0001) %MON dynstat_vvel_mean            =   2.1207727349870E-07
(PID.TID 0000.0001) %MON dynstat_vvel_sd              =   2.0901045191669E-02
(PID.TID 0000.0001) %MON dynstat_vvel_del2            =   4.6115766170742E-05
(PID.TID 0000.0001) %MON dynstat_wvel_max             =   2.2335567552072E-08
(PID.TID 0000.0001) %MON dynstat_wvel_min             =  -1.3461565754260E-08
(PID.TID 0000.0001) %MON dynstat_wvel_mean            =   3.6947110654890E-22
(PID.TID 0000.0001) %MON dynstat_wvel_sd              =   8.7366516835763E-09
(PID.TID 0000.0001) %MON dynstat_wvel_del2            =   4.3246751016183E-12
(PID.TID 0000.0001) %MON dynstat_theta_max            =   2.0000000000000E+01
(PID.TID 0000.0001) %MON dynstat_theta_min            =   2.0000000000000E+01
(PID.TID 0000.0001) %MON dynstat_theta_mean           =   2.0000000000000E+01
(PID.TID 0000.0001) %MON dynstat_theta_sd             =   3.8014036363165E-13
(PID.TID 0000.0001) %MON dynstat_theta_del2           =   0.0000000000000E+00
(PID.TID 0000.0001) %MON dynstat_salt_max             =   3.0000000000000E+01
(PID.TID 0000.0001) %MON dynstat_salt_min             =   3.0000000000000E+01
(PID.TID 0000.0001) %MON dynstat_salt_mean            =   2.9999999999999E+01
(PID.TID 0000.0001) %MON dynstat_salt_sd              =   5.5777604757167E-13
(PID.TID 0000.0001) %MON dynstat_salt_del2            =   0.0000000000000E+00
(PID.TID 0000.0001) %MON trAdv_CFL_u_max              =   4.9523675863424E-03
(PID.TID 0000.0001) %MON trAdv_CFL_v_max              =   4.4838085851935E-03
(PID.TID 0000.0001) %MON trAdv_CFL_w_max              =   5.9492807135146E-09
(PID.TID 0000.0001) %MON advcfl_uvel_max              =   4.9549045075104E-03
(PID.TID 0000.0001) %MON advcfl_vvel_max              =   4.4848985512858E-03
(PID.TID 0000.0001) %MON advcfl_wvel_max              =   1.0721072424995E-08
(PID.TID 0000.0001) %MON advcfl_W_hf_max              =   0.0000000000000E+00
(PID.TID 0000.0001) %MON pe_b_mean                    =   2.7575060728441E-06
(PID.TID 0000.0001) %MON ke_max                       =   3.4090757935688E-03
(PID.TID 0000.0001) %MON ke_mean                      =   4.6929433162334E-04
(PID.TID 0000.0001) %MON ke_vol                       =   6.8893493896486E+15
(PID.TID 0000.0001) %MON vort_r_min                   =  -8.3910979313747E-07
(PID.TID 0000.0001) %MON vort_r_max                   =   1.9384869176781E-06
(PID.TID 0000.0001) %MON vort_a_mean                  =   1.0600000000000E-04
(PID.TID 0000.0001) %MON vort_a_sd                    =   3.5363597375471E-06
(PID.TID 0000.0001) %MON vort_p_mean                  =   1.1652272308690E-04
(PID.TID 0000.0001) %MON vort_p_sd                    =   4.1761323796039E-05
(PID.TID 0000.0001) %MON surfExpan_theta_mean         =   7.4970153541977E-21
(PID.TID 0000.0001) %MON surfExpan_salt_mean          =   1.1243628250668E-20
(PID.TID 0000.0001) // =======================================================
(PID.TID 0000.0001) // End MONITOR dynamic field statistics
(PID.TID 0000.0001) // =======================================================
 cg2d: Sum(rhs),rhsMax =  -1.01697243893895E-03  1.18791214003999E-01
 cg2d: Sum(rhs),rhsMax =  -1.01699365383597E-03  1.18815571167174E-01
 cg2d: Sum(rhs),rhsMax =  -1.01701604775177E-03  1.18839889868750E-01
 cg2d: Sum(rhs),rhsMax =  -1.01703962449189E-03  1.18864170057637E-01
 cg2d: Sum(rhs),rhsMax =  -1.01706438771434E-03  1.18888411682863E-01
 cg2d: Sum(rhs),rhsMax =  -1.01709034116220E-03  1.18912614693564E-01
 cg2d: Sum(rhs),rhsMax =  -1.01711748830143E-03  1.18936779038980E-01
 cg2d: Sum(rhs),rhsMax =  -1.01714583282078E-03  1.18960904668479E-01
 cg2d: Sum(rhs),rhsMax =  -1.01717537913496E-03  1.18984991531525E-01
 cg2d: Sum(rhs),rhsMax =  -1.01720613013169E-03  1.19009039577706E-01
 cg2d: Sum(rhs),rhsMax =  -1.01723808972027E-03  1.19033048756713E-01
 cg2d: Sum(rhs),rhsMax =  -1.01727126186489E-03  1.19057019018351E-01
 cg2d: Sum(rhs),rhsMax =  -1.01730564983226E-03  1.19080950312543E-01
 cg2d: Sum(rhs),rhsMax =  -1.01734125764566E-03  1.19104842589313E-01
 cg2d: Sum(rhs),rhsMax =  -1.01737808908323E-03  1.19128695798808E-01
 cg2d: Sum(rhs),rhsMax =  -1.01741614746840E-03  1.19152509891282E-01
 cg2d: Sum(rhs),rhsMax =  -1.01745543672245E-03  1.19176284817105E-01
 cg2d: Sum(rhs),rhsMax =  -1.01749596053854E-03  1.19200020526752E-01
 cg2d: Sum(rhs),rhsMax =  -1.01753772293712E-03  1.19223716970822E-01
 cg2d: Sum(rhs),rhsMax =  -1.01758072712093E-03  1.19247374100019E-01
 cg2d: Sum(rhs),rhsMax =  -1.01762497714291E-03  1.19270991865160E-01
 cg2d: Sum(rhs),rhsMax =  -1.01767047656310E-03  1.19294570217180E-01
 cg2d: Sum(rhs),rhsMax =  -1.01771722904384E-03  1.19318109107121E-01
 cg2d: Sum(rhs),rhsMax =  -1.01776523874103E-03  1.19341608486147E-01
 cg2d: Sum(rhs),rhsMax =  -1.01781450852889E-03  1.19365068305520E-01
 cg2d: Sum(rhs),rhsMax =  -1.01786504299458E-03  1.19388488516634E-01
 cg2d: Sum(rhs),rhsMax =  -1.01791684526201E-03  1.19411869070986E-01
 cg2d: Sum(rhs),rhsMax =  -1.01796991930894E-03  1.19435209920190E-01
 cg2d: Sum(rhs),rhsMax =  -1.01802426905976E-03  1.19458511015967E-01
 cg2d: Sum(rhs),rhsMax =  -1.01807989711062E-03  1.19481772310162E-01
 cg2d: Sum(rhs),rhsMax =  -1.01813680841180E-03  1.19504993754726E-01
 cg2d: Sum(rhs),rhsMax =  -1.01819500623514E-03  1.19528175301733E-01
 cg2d: Sum(rhs),rhsMax =  -1.01825449401580E-03  1.19551316903359E-01
 cg2d: Sum(rhs),rhsMax =  -1.01831527567666E-03  1.19574418511905E-01
 cg2d: Sum(rhs),rhsMax =  -1.01837735503604E-03  1.19597480079783E-01
 cg2d: Sum(rhs),rhsMax =  -1.01844073531248E-03  1.19620501559519E-01
 cg2d: Sum(rhs),rhsMax =  -1.01850542078930E-03  1.19643482903750E-01
 cg2d: Sum(rhs),rhsMax =  -1.01857141478529E-03  1.19666424065235E-01
 cg2d: Sum(rhs),rhsMax =  -1.01863872099588E-03  1.19689324996845E-01
 cg2d: Sum(rhs),rhsMax =  -1.01870734322395E-03  1.19712185651559E-01
 cg2d: Sum(rhs),rhsMax =  -1.01877728450207E-03  1.19735005982486E-01
 cg2d: Sum(rhs),rhsMax =  -1.01884854952528E-03  1.19757785942836E-01
 cg2d: Sum(rhs),rhsMax =  -1.01892114110783E-03  1.19780525485941E-01
 cg2d: Sum(rhs),rhsMax =  -1.01899506306893E-03  1.19803224565247E-01
 cg2d: Sum(rhs),rhsMax =  -1.01907031942207E-03  1.19825883134314E-01
 cg2d: Sum(rhs),rhsMax =  -1.01914691275265E-03  1.19848501146822E-01
 cg2d: Sum(rhs),rhsMax =  -1.01922484795997E-03  1.19871078556563E-01
 cg2d: Sum(rhs),rhsMax =  -1.01930412761328E-03  1.19893615317441E-01
 cg2d: Sum(rhs),rhsMax =  -1.01938475600792E-03  1.19916111383486E-01
 cg2d: Sum(rhs),rhsMax =  -1.01946673629065E-03  1.19938566708838E-01
 cg2d: Sum(rhs),rhsMax =  -1.01955007198907E-03  1.19960981247752E-01
 cg2d: Sum(rhs),rhsMax =  -1.01963476671929E-03  1.19983354954599E-01
 cg2d: Sum(rhs),rhsMax =  -1.01972082429545E-03  1.20005687783868E-01
 cg2d: Sum(rhs),rhsMax =  -1.01980824800211E-03  1.20027979690168E-01
 cg2d: Sum(rhs),rhsMax =  -1.01989704119304E-03  1.20050230628214E-01
 cg2d: Sum(rhs),rhsMax =  -1.01998720736214E-03  1.20072440552852E-01
 cg2d: Sum(rhs),rhsMax =  -1.02007875026080E-03  1.20094609419029E-01
 cg2d: Sum(rhs),rhsMax =  -1.02017167333763E-03  1.20116737181822E-01
 cg2d: Sum(rhs),rhsMax =  -1.02026597984371E-03  1.20138823796418E-01
 cg2d: Sum(rhs),rhsMax =  -1.02036167345051E-03  1.20160869218123E-01
 cg2d: Sum(rhs),rhsMax =  -1.02045875762658E-03  1.20182873402356E-01
 cg2d: Sum(rhs),rhsMax =  -1.02055723509700E-03  1.20204836304662E-01
 cg2d: Sum(rhs),rhsMax =  -1.02065711005350E-03  1.20226757880694E-01
 cg2d: Sum(rhs),rhsMax =  -1.02075838556088E-03  1.20248638086226E-01
 cg2d: Sum(rhs),rhsMax =  -1.02086106523776E-03  1.20270476877152E-01
 cg2d: Sum(rhs),rhsMax =  -1.02096515184517E-03  1.20292274209479E-01
 cg2d: Sum(rhs),rhsMax =  -1.02107064898751E-03  1.20314030039337E-01
 cg2d: Sum(rhs),rhsMax =  -1.02117756017507E-03  1.20335744322962E-01
 cg2d: Sum(rhs),rhsMax =  -1.02128588882503E-03  1.20357417016726E-01
 cg2d: Sum(rhs),rhsMax =  -1.02139563739074E-03  1.20379048077105E-01
 cg2d: Sum(rhs),rhsMax =  -1.02150680969677E-03  1.20400637460696E-01
 cg2d: Sum(rhs),rhsMax =  -1.02161940881550E-03  1.20422185124215E-01
(PID.TID 0000.0001)      cg2d_init_res =   2.22523929866327E-03
(PID.TID 0000.0001)      cg2d_iters(min,last) =      -1      83
(PID.TID 0000.0001)      cg2d_last_res =   8.40069204685982E-08
(PID.TID 0000.0001) // =======================================================
(PID.TID 0000.0001) // Begin MONITOR dynamic field statistics
(PID.TID 0000.0001) // =======================================================
(PID.TID 0000.0001) %MON time_tsnumber                =                  4536
(PID.TID 0000.0001) %MON time_secondsf                =   5.4432000000000E+06
(PID.TID 0000.0001) %MON dynstat_eta_max              =   1.2257308277355E-01
(PID.TID 0000.0001) %MON dynstat_eta_min              =  -5.5518362545662E-02
(PID.TID 0000.0001) %MON dynstat_eta_mean             =   6.1499144781449E-07
(PID.TID 0000.0001) %MON dynstat_eta_sd               =   5.2526839484799E-02
(PID.TID 0000.0001) %MON dynstat_eta_del2             =   1.8155452362577E-05
(PID.TID 0000.0001) %MON dynstat_uvel_max             =   8.3342960898113E-02
(PID.TID 0000.0001) %MON dynstat_uvel_min             =  -3.7981078612123E-02
(PID.TID 0000.0001) %MON dynstat_uvel_mean            =  -1.0702302082450E-07
(PID.TID 0000.0001) %MON dynstat_uvel_sd              =   2.3037087212327E-02
(PID.TID 0000.0001) %MON dynstat_uvel_del2            =   4.0141627517888E-05
(PID.TID 0000.0001) %MON dynstat_vvel_max             =   7.5996851918511E-02
(PID.TID 0000.0001) %MON dynstat_vvel_min             =  -5.4159558526942E-02
(PID.TID 0000.0001) %MON dynstat_vvel_mean            =   2.1165238896353E-07
(PID.TID 0000.0001) %MON dynstat_vvel_sd              =   2.1143189094629E-02
(PID.TID 0000.0001) %MON dynstat_vvel_del2            =   4.6463675174258E-05
(PID.TID 0000.0001) %MON dynstat_wvel_max             =   2.2124819394521E-08
(PID.TID 0000.0001) %MON dynstat_wvel_min             =  -1.3501714252052E-08
(PID.TID 0000.0001) %MON dynstat_wvel_mean            =  -2.0166802035722E-21
(PID.TID 0000.0001) %MON dynstat_wvel_sd              =   8.6479358639337E-09
(PID.TID 0000.0001) %MON dynstat_wvel_del2            =   4.2997038472923E-12
(PID.TID 0000.0001) %MON dynstat_theta_max            =   2.0000000000000E+01
(PID.TID 0000.0001) %MON dynstat_theta_min            =   2.0000000000000E+01
(PID.TID 0000.0001) %MON dynstat_theta_mean           =   2.0000000000000E+01
(PID.TID 0000.0001) %MON dynstat_theta_sd             =   3.8014036363165E-13
(PID.TID 0000.0001) %MON dynstat_theta_del2           =   0.0000000000000E+00
(PID.TID 0000.0001) %MON dynstat_salt_max             =   3.0000000000000E+01
(PID.TID 0000.0001) %MON dynstat_salt_min             =   3.0000000000000E+01
(PID.TID 0000.0001) %MON dynstat_salt_mean            =   2.9999999999999E+01
(PID.TID 0000.0001) %MON dynstat_salt_sd              =   5.5777604757167E-13
(PID.TID 0000.0001) %MON dynstat_salt_del2            =   0.0000000000000E+00
(PID.TID 0000.0001) %MON trAdv_CFL_u_max              =   4.9980079298333E-03
(PID.TID 0000.0001) %MON trAdv_CFL_v_max              =   4.5588210068830E-03
(PID.TID 0000.0001) %MON trAdv_CFL_w_max              =   5.8932079664262E-09
(PID.TID 0000.0001) %MON advcfl_uvel_max              =   5.0005776538868E-03
(PID.TID 0000.0001) %MON advcfl_vvel_max              =   4.5598111151107E-03
(PID.TID 0000.0001) %MON advcfl_wvel_max              =   1.0619913309370E-08
(PID.TID 0000.0001) %MON advcfl_W_hf_max              =   0.0000000000000E+00
(PID.TID 0000.0001) %MON pe_b_mean                    =   2.8286931198660E-06
(PID.TID 0000.0001) %MON ke_max                       =   3.4730172686229E-03
(PID.TID 0000.0001) %MON ke_mean                      =   4.7988125661068E-04
(PID.TID 0000.0001) %MON ke_vol                       =   6.8893493896486E+15
(PID.TID 0000.0001) %MON vort_r_min                   =  -8.5083822393572E-07
(PID.TID 0000.0001) %MON vort_r_max                   =   1.9603959339257E-06
(PID.TID 0000.0001) %MON vort_a_mean                  =   1.0600000000000E-04
(PID.TID 0000.0001) %MON vort_a_sd                    =   3.5367078113641E-06
(PID.TID 0000.0001) %MON vort_p_mean                  =   1.1652272308690E-04
(PID.TID 0000.0001) %MON vort_p_sd                    =   4.1762085591340E-05
(PID.TID 0000.0001) %MON surfExpan_theta_mean         =  -4.0294404849798E-20
(PID.TID 0000.0001) %MON surfExpan_salt_mean          =  -6.0454239145555E-20
(PID.TID 0000.0001) // =======================================================
(PID.TID 0000.0001) // End MONITOR dynamic field statistics
(PID.TID 0000.0001) // =======================================================
 cg2d: Sum(rhs),rhsMax =  -1.02173343768311E-03  1.20443691024500E-01
 cg2d: Sum(rhs),rhsMax =  -1.02184890019572E-03  1.20465155118500E-01
 cg2d: Sum(rhs),rhsMax =  -1.02196579874395E-03  1.20486577363289E-01
 cg2d: Sum(rhs),rhsMax =  -1.02208413687525E-03  1.20507957716055E-01
 cg2d: Sum(rhs),rhsMax =  -1.02220391751449E-03  1.20529296134104E-01
 cg2d: Sum(rhs),rhsMax =  -1.02232514401125E-03  1.20550592574867E-01
 cg2d: Sum(rhs),rhsMax =  -1.02244781898750E-03  1.20571846995887E-01
 cg2d: Sum(rhs),rhsMax =  -1.02257194541666E-03  1.20593059354831E-01
 cg2d: Sum(rhs),rhsMax =  -1.02269752673390E-03  1.20614229609476E-01
 cg2d: Sum(rhs),rhsMax =  -1.02282456595667E-03  1.20635357717730E-01
 cg2d: Sum(rhs),rhsMax =  -1.02295306556499E-03  1.20656443637614E-01
 cg2d: Sum(rhs),rhsMax =  -1.02308302866591E-03  1.20677487327266E-01
 cg2d: Sum(rhs),rhsMax =  -1.02321445844824E-03  1.20698488744946E-01
 cg2d: Sum(rhs),rhsMax =  -1.02334735725019E-03  1.20719447849040E-01
 cg2d: Sum(rhs),rhsMax =  -1.02348172846795E-03  1.20740364598037E-01
 cg2d: Sum(rhs),rhsMax =  -1.02361757451129E-03  1.20761238950558E-01
 cg2d: Sum(rhs),rhsMax =  -1.02375489863705E-03  1.20782070865347E-01
 cg2d: Sum(rhs),rhsMax =  -1.02389370294584E-03  1.20802860301256E-01
 cg2d: Sum(rhs),rhsMax =  -1.02403399028142E-03  1.20823607217263E-01
 cg2d: Sum(rhs),rhsMax =  -1.02417576382120E-03  1.20844311572469E-01
 cg2d: Sum(rhs),rhsMax =  -1.02431902602374E-03  1.20864973326089E-01
 cg2d: Sum(rhs),rhsMax =  -1.02446377932736E-03  1.20885592437460E-01
 cg2d: Sum(rhs),rhsMax =  -1.02461002631500E-03  1.20906168866042E-01
 cg2d: Sum(rhs),rhsMax =  -1.02475776988874E-03  1.20926702571411E-01
 cg2d: Sum(rhs),rhsMax =  -1.02490701210927E-03  1.20947193513267E-01
 cg2d: Sum(rhs),rhsMax =  -1.02505775574669E-03  1.20967641651430E-01
 cg2d: Sum(rhs),rhsMax =  -1.02521000314889E-03  1.20988046945838E-01
 cg2d: Sum(rhs),rhsMax =  -1.02536375711043E-03  1.21008409356551E-01
 cg2d: Sum(rhs),rhsMax =  -1.02551901991840E-03  1.21028728843750E-01
 cg2d: Sum(rhs),rhsMax =  -1.02567579361271E-03  1.21049005367737E-01
 cg2d: Sum(rhs),rhsMax =  -1.02583408052450E-03  1.21069238888935E-01
 cg2d: Sum(rhs),rhsMax =  -1.02599388362616E-03  1.21089429367885E-01
 cg2d: Sum(rhs),rhsMax =  -1.02615520435423E-03  1.21109576765259E-01
 cg2d: Sum(rhs),rhsMax =  -1.02631804538830E-03  1.21129681041836E-01
 cg2d: Sum(rhs),rhsMax =  -1.02645191509963E-03  1.21153341266237E-01
 cg2d: Sum(rhs),rhsMax =  -1.02658240304321E-03  1.21177537693695E-01
 cg2d: Sum(rhs),rhsMax =  -1.02671437451723E-03  1.21201696272051E-01
 cg2d: Sum(rhs),rhsMax =  -1.02684783127636E-03  1.21225816951957E-01
 cg2d: Sum(rhs),rhsMax =  -1.02698277560243E-03  1.21249899684167E-01
 cg2d: Sum(rhs),rhsMax =  -1.02711920948268E-03  1.21273944419538E-01
 cg2d: Sum(rhs),rhsMax =  -1.02725713463182E-03  1.21297951109035E-01
 cg2d: Sum(rhs),rhsMax =  -1.02739655268264E-03  1.21321919703715E-01
 cg2d: Sum(rhs),rhsMax =  -1.02753746560173E-03  1.21345850154758E-01
 cg2d: Sum(rhs),rhsMax =  -1.02767987547484E-03  1.21369742413422E-01
 cg2d: Sum(rhs),rhsMax =  -1.02782378382615E-03  1.21393596431096E-01
 cg2d: Sum(rhs),rhsMax =  -1.02796919197612E-03  1.21417412159251E-01
 cg2d: Sum(rhs),rhsMax =  -1.02811610199619E-03  1.21441189549472E-01
 cg2d: Sum(rhs),rhsMax =  -1.02826451510511E-03  1.21464928553448E-01
 cg2d: Sum(rhs),rhsMax =  -1.02841443337090E-03  1.21488629122969E-01
 cg2d: Sum(rhs),rhsMax =  -1.02856585850543E-03  1.21512291209931E-01
 cg2d: Sum(rhs),rhsMax =  -1.02871879111912E-03  1.21535914766337E-01
 cg2d: Sum(rhs),rhsMax =  -1.02887323296329E-03  1.21559499744290E-01
 cg2d: Sum(rhs),rhsMax =  -1.02902918571378E-03  1.21583046095996E-01
 cg2d: Sum(rhs),rhsMax =  -1.02918665031759E-03  1.21606553773776E-01
 cg2d: Sum(rhs),rhsMax =  -1.02934562870364E-03  1.21630022730042E-01
 cg2d: Sum(rhs),rhsMax =  -1.02950612162724E-03  1.21653452917321E-01
 cg2d: Sum(rhs),rhsMax =  -1.02966813046195E-03  1.21676844288242E-01
 cg2d: Sum(rhs),rhsMax =  -1.02983165664867E-03  1.21700196795538E-01
 cg2d: Sum(rhs),rhsMax =  -1.02999670119200E-03  1.21723510392047E-01
 cg2d: Sum(rhs),rhsMax =  -1.03016326553575E-03  1.21746785030717E-01
 cg2d: Sum(rhs),rhsMax =  -1.03033135018253E-03  1.21770020664594E-01
 cg2d: Sum(rhs),rhsMax =  -1.03050095623163E-03  1.21793217246834E-01
 cg2d: Sum(rhs),rhsMax =  -1.03067208521988E-03  1.21816374730698E-01
 cg2d: Sum(rhs),rhsMax =  -1.03084473764652E-03  1.21839493069554E-01
 cg2d: Sum(rhs),rhsMax =  -1.03101891448274E-03  1.21862572216872E-01
 cg2d: Sum(rhs),rhsMax =  -1.03119461657892E-03  1.21885612126232E-01
 cg2d: Sum(rhs),rhsMax =  -1.03137184498623E-03  1.21908612751316E-01
 cg2d: Sum(rhs),rhsMax =  -1.03155060016767E-03  1.21931574045920E-01
 cg2d: Sum(rhs),rhsMax =  -1.03173088312917E-03  1.21954495963935E-01
 cg2d: Sum(rhs),rhsMax =  -1.03191269460849E-03  1.21977378459366E-01
 cg2d: Sum(rhs),rhsMax =  -1.03209603490968E-03  1.22000221486321E-01
 cg2d: Sum(rhs),rhsMax =  -1.03228090504881E-03  1.22023024999018E-01
(PID.TID 0000.0001)      cg2d_init_res =   2.19058705344892E-03
(PID.TID 0000.0001)      cg2d_iters(min,last) =      -1      83
(PID.TID 0000.0001)      cg2d_last_res =   8.74427475036131E-08
(PID.TID 0000.0001) // =======================================================
(PID.TID 0000.0001) // Begin MONITOR dynamic field statistics
(PID.TID 0000.0001) // =======================================================
(PID.TID 0000.0001) %MON time_tsnumber                =                  4608
(PID.TID 0000.0001) %MON time_secondsf                =   5.5296000000000E+06
(PID.TID 0000.0001) %MON dynstat_eta_max              =   1.2415096166160E-01
(PID.TID 0000.0001) %MON dynstat_eta_min              =  -5.5977282994780E-02
(PID.TID 0000.0001) %MON dynstat_eta_mean             =   6.2971859966262E-07
(PID.TID 0000.0001) %MON dynstat_eta_sd               =   5.3185407540353E-02
(PID.TID 0000.0001) %MON dynstat_eta_del2             =   1.8336104529900E-05
(PID.TID 0000.0001) %MON dynstat_uvel_max             =   8.4123488867573E-02
(PID.TID 0000.0001) %MON dynstat_uvel_min             =  -3.8838310740235E-02
(PID.TID 0000.0001) %MON dynstat_uvel_mean            =  -1.1162647073063E-07
(PID.TID 0000.0001) %MON dynstat_uvel_sd              =   2.3286527038094E-02
(PID.TID 0000.0001) %MON dynstat_uvel_del2            =   4.0626297742244E-05
(PID.TID 0000.0001) %MON dynstat_vvel_max             =   7.7238248314176E-02
(PID.TID 0000.0001) %MON dynstat_vvel_min             =  -5.5004520430572E-02
(PID.TID 0000.0001) %MON dynstat_vvel_mean            =   2.1174480562382E-07
(PID.TID 0000.0001) %MON dynstat_vvel_sd              =   2.1381209170959E-02
(PID.TID 0000.0001) %MON dynstat_vvel_del2            =   4.6783414360125E-05
(PID.TID 0000.0001) %MON dynstat_wvel_max             =   2.1906834841066E-08
(PID.TID 0000.0001) %MON dynstat_wvel_min             =  -1.3535903014708E-08
(PID.TID 0000.0001) %MON dynstat_wvel_mean            =   9.6660894794493E-22
(PID.TID 0000.0001) %MON dynstat_wvel_sd              =   8.5611949822886E-09
(PID.TID 0000.0001) %MON dynstat_wvel_del2            =   4.2752664504734E-12
(PID.TID 0000.0001) %MON dynstat_theta_max            =   2.0000000000000E+01
(PID.TID 0000.0001) %MON dynstat_theta_min            =   2.0000000000000E+01
(PID.TID 0000.0001) %MON dynstat_theta_mean           =   2.0000000000000E+01
(PID.TID 0000.0001) %MON dynstat_theta_sd             =   3.8014036363165E-13
(PID.TID 0000.0001) %MON dynstat_theta_del2           =   0.0000000000000E+00
(PID.TID 0000.0001) %MON dynstat_salt_max             =   3.0000000000000E+01
(PID.TID 0000.0001) %MON dynstat_salt_min             =   3.0000000000000E+01
(PID.TID 0000.0001) %MON dynstat_salt_mean            =   2.9999999999999E+01
(PID.TID 0000.0001) %MON dynstat_salt_sd              =   5.5777604757167E-13
(PID.TID 0000.0001) %MON dynstat_salt_del2            =   0.0000000000000E+00
(PID.TID 0000.0001) %MON trAdv_CFL_u_max              =   5.0448046530237E-03
(PID.TID 0000.0001) %MON trAdv_CFL_v_max              =   4.6332512627783E-03
(PID.TID 0000.0001) %MON trAdv_CFL_w_max              =   5.8335640308699E-09
(PID.TID 0000.0001) %MON advcfl_uvel_max              =   5.0474093320544E-03
(PID.TID 0000.0001) %MON advcfl_vvel_max              =   4.6342948988505E-03
(PID.TID 0000.0001) %MON advcfl_wvel_max              =   1.0515280723711E-08
(PID.TID 0000.0001) %MON advcfl_W_hf_max              =   0.0000000000000E+00
(PID.TID 0000.0001) %MON pe_b_mean                    =   2.9000686355390E-06
(PID.TID 0000.0001) %MON ke_max                       =   3.5392407504444E-03
(PID.TID 0000.0001) %MON ke_mean                      =   4.9052026253214E-04
(PID.TID 0000.0001) %MON ke_vol                       =   6.8893493896486E+15
(PID.TID 0000.0001) %MON vort_r_min                   =  -8.6241446882451E-07
(PID.TID 0000.0001) %MON vort_r_max                   =   1.9785499675686E-06
(PID.TID 0000.0001) %MON vort_a_mean                  =   1.0600000000000E-04
(PID.TID 0000.0001) %MON vort_a_sd                    =   3.5370530250926E-06
(PID.TID 0000.0001) %MON vort_p_mean                  =   1.1652272308690E-04
(PID.TID 0000.0001) %MON vort_p_sd                    =   4.1762821442509E-05
(PID.TID 0000.0001) %MON surfExpan_theta_mean         =   1.9338446893218E-20
(PID.TID 0000.0001) %MON surfExpan_salt_mean          =   2.9008459831756E-20
(PID.TID 0000.0001) // =======================================================
(PID.TID 0000.0001) // End MONITOR dynamic field statistics
(PID.TID 0000.0001) // =======================================================
 cg2d: Sum(rhs),rhsMax =  -1.03246730555518E-03  1.22045788951780E-01
 cg2d: Sum(rhs),rhsMax =  -1.03265523675839E-03  1.22068513299034E-01
 cg2d: Sum(rhs),rhsMax =  -1.03284469947922E-03  1.22091197995320E-01
 cg2d: Sum(rhs),rhsMax =  -1.03303569387213E-03  1.22113842995276E-01
 cg2d: Sum(rhs),rhsMax =  -1.03322822009924E-03  1.22136448253653E-01
 cg2d: Sum(rhs),rhsMax =  -1.03342227941284E-03  1.22159013725312E-01
 cg2d: Sum(rhs),rhsMax =  -1.03361787138037E-03  1.22181539365212E-01
 cg2d: Sum(rhs),rhsMax =  -1.03381499651552E-03  1.22204025128430E-01
 cg2d: Sum(rhs),rhsMax =  -1.03401365502251E-03  1.22226470970140E-01
 cg2d: Sum(rhs),rhsMax =  -1.03421384705249E-03  1.22248876845634E-01
 cg2d: Sum(rhs),rhsMax =  -1.03441557300099E-03  1.22271242710303E-01
 cg2d: Sum(rhs),rhsMax =  -1.03461883291785E-03  1.22293568519650E-01
 cg2d: Sum(rhs),rhsMax =  -1.03482362665515E-03  1.22315854229283E-01
 cg2d: Sum(rhs),rhsMax =  -1.03502995453243E-03  1.22338099794920E-01
 cg2d: Sum(rhs),rhsMax =  -1.03523781649508E-03  1.22360305172389E-01
 cg2d: Sum(rhs),rhsMax =  -1.03544721236547E-03  1.22382470317622E-01
 cg2d: Sum(rhs),rhsMax =  -1.03565814208394E-03  1.22404595186662E-01
 cg2d: Sum(rhs),rhsMax =  -1.03587060564340E-03  1.22426679735657E-01
 cg2d: Sum(rhs),rhsMax =  -1.03608460280452E-03  1.22448723920869E-01
 cg2d: Sum(rhs),rhsMax =  -1.03630013346812E-03  1.22470727698665E-01
 cg2d: Sum(rhs),rhsMax =  -1.03651719744398E-03  1.22492691025514E-01
 cg2d: Sum(rhs),rhsMax =  -1.03673579420918E-03  1.22514613858007E-01
 cg2d: Sum(rhs),rhsMax =  -1.03695592368812E-03  1.22536496152838E-01
 cg2d: Sum(rhs),rhsMax =  -1.03717758534976E-03  1.22558337866805E-01
 cg2d: Sum(rhs),rhsMax =  -1.03740077895157E-03  1.22580138956821E-01
 cg2d: Sum(rhs),rhsMax =  -1.03762550358730E-03  1.22601899379906E-01
 cg2d: Sum(rhs),rhsMax =  -1.03785175958862E-03  1.22623619093187E-01
 cg2d: Sum(rhs),rhsMax =  -1.03807954537469E-03  1.22645298053905E-01
 cg2d: Sum(rhs),rhsMax =  -1.03830886143450E-03  1.22666936219408E-01
 cg2d: Sum(rhs),rhsMax =  -1.03853970659411E-03  1.22688533547150E-01
 cg2d: Sum(rhs),rhsMax =  -1.03877208030414E-03  1.22710089994704E-01
 cg2d: Sum(rhs),rhsMax =  -1.03900598185101E-03  1.22731605519742E-01
 cg2d: Sum(rhs),rhsMax =  -1.03924141088370E-03  1.22753080080050E-01
 cg2d: Sum(rhs),rhsMax =  -1.03947836581179E-03  1.22774513633523E-01
 cg2d: Sum(rhs),rhsMax =  -1.03971684682494E-03  1.22795906138168E-01
 cg2d: Sum(rhs),rhsMax =  -1.03995685236726E-03  1.22817257552103E-01
 cg2d: Sum(rhs),rhsMax =  -1.04019838197537E-03  1.22838567833551E-01
 cg2d: Sum(rhs),rhsMax =  -1.04044143471008E-03  1.22859836940851E-01
 cg2d: Sum(rhs),rhsMax =  -1.04068600937441E-03  1.22881064832445E-01
 cg2d: Sum(rhs),rhsMax =  -1.04093210515403E-03  1.22902251466896E-01
 cg2d: Sum(rhs),rhsMax =  -1.04117972123478E-03  1.22923396802866E-01
 cg2d: Sum(rhs),rhsMax =  -1.04142885641987E-03  1.22944500799132E-01
 cg2d: Sum(rhs),rhsMax =  -1.04167950945397E-03  1.22965563414587E-01
 cg2d: Sum(rhs),rhsMax =  -1.04193167955761E-03  1.22986584608229E-01
 cg2d: Sum(rhs),rhsMax =  -1.04218536533738E-03  1.23007564339166E-01
 cg2d: Sum(rhs),rhsMax =  -1.04244056550865E-03  1.23028502566620E-01
 cg2d: Sum(rhs),rhsMax =  -1.04269727915244E-03  1.23049399249921E-01
 cg2d: Sum(rhs),rhsMax =  -1.04295550468254E-03  1.23070254348518E-01
 cg2d: Sum(rhs),rhsMax =  -1.04321524088311E-03  1.23091067821958E-01
 cg2d: Sum(rhs),rhsMax =  -1.04347648684257E-03  1.23111839629911E-01
 cg2d: Sum(rhs),rhsMax =  -1.04373924050452E-03  1.23132569732153E-01
 cg2d: Sum(rhs),rhsMax =  -1.04400350100580E-03  1.23153258088568E-01
 cg2d: Sum(rhs),rhsMax =  -1.04426926674884E-03  1.23173904659163E-01
 cg2d: Sum(rhs),rhsMax =  -1.04453653616972E-03  1.23194509404047E-01
 cg2d: Sum(rhs),rhsMax =  -1.04480530765461E-03  1.23215072283440E-01
 cg2d: Sum(rhs),rhsMax =  -1.04507558013834E-03  1.23235593257682E-01
 cg2d: Sum(rhs),rhsMax =  -1.04534735179225E-03  1.23256072287217E-01
 cg2d: Sum(rhs),rhsMax =  -1.04562062080498E-03  1.23276509332605E-01
 cg2d: Sum(rhs),rhsMax =  -1.04589538616390E-03  1.23296904354516E-01
 cg2d: Sum(rhs),rhsMax =  -1.04617164563004E-03  1.23317257313737E-01
 cg2d: Sum(rhs),rhsMax =  -1.04644939770012E-03  1.23337568171159E-01
 cg2d: Sum(rhs),rhsMax =  -1.04672864059515E-03  1.23357836887792E-01
 cg2d: Sum(rhs),rhsMax =  -1.04700937263307E-03  1.23378063424758E-01
 cg2d: Sum(rhs),rhsMax =  -1.04729159192438E-03  1.23398247743286E-01
 cg2d: Sum(rhs),rhsMax =  -1.04757529711574E-03  1.23418389804723E-01
 cg2d: Sum(rhs),rhsMax =  -1.04786048585985E-03  1.23438489570530E-01
 cg2d: Sum(rhs),rhsMax =  -1.04814715652403E-03  1.23458547002276E-01
 cg2d: Sum(rhs),rhsMax =  -1.04843530721214E-03  1.23478562061642E-01
 cg2d: Sum(rhs),rhsMax =  -1.04872493566460E-03  1.23498534710433E-01
 cg2d: Sum(rhs),rhsMax =  -1.04901604063587E-03  1.23518464910551E-01
 cg2d: Sum(rhs),rhsMax =  -1.04930861951866E-03  1.23538352624021E-01
 cg2d: Sum(rhs),rhsMax =  -1.04960267052981E-03  1.23558197812985E-01
(PID.TID 0000.0001)      cg2d_init_res =   2.15721497210873E-03
(PID.TID 0000.0001)      cg2d_iters(min,last) =      -1      83
(PID.TID 0000.0001)      cg2d_last_res =   8.97232022672516E-08
(PID.TID 0000.0001) // =======================================================
(PID.TID 0000.0001) // Begin MONITOR dynamic field statistics
(PID.TID 0000.0001) // =======================================================
(PID.TID 0000.0001) %MON time_tsnumber                =                  4680
(PID.TID 0000.0001) %MON time_secondsf                =   5.6160000000000E+06
(PID.TID 0000.0001) %MON dynstat_eta_max              =   1.2569635130905E-01
(PID.TID 0000.0001) %MON dynstat_eta_min              =  -5.6425530446174E-02
(PID.TID 0000.0001) %MON dynstat_eta_mean             =   6.4838918949523E-07
(PID.TID 0000.0001) %MON dynstat_eta_sd               =   5.3837327235416E-02
(PID.TID 0000.0001) %MON dynstat_eta_del2             =   1.8512849889017E-05
(PID.TID 0000.0001) %MON dynstat_uvel_max             =   8.4925176486955E-02
(PID.TID 0000.0001) %MON dynstat_uvel_min             =  -3.9718761266643E-02
(PID.TID 0000.0001) %MON dynstat_uvel_mean            =  -1.1500900344740E-07
(PID.TID 0000.0001) %MON dynstat_uvel_sd              =   2.3537034552345E-02
(PID.TID 0000.0001) %MON dynstat_uvel_del2            =   4.1118273728005E-05
(PID.TID 0000.0001) %MON dynstat_vvel_max             =   7.8427260917982E-02
(PID.TID 0000.0001) %MON dynstat_vvel_min             =  -5.5829165866860E-02
(PID.TID 0000.0001) %MON dynstat_vvel_mean            =   2.1233051699405E-07
(PID.TID 0000.0001) %MON dynstat_vvel_sd              =   2.1614865056060E-02
(PID.TID 0000.0001) %MON dynstat_vvel_del2            =   4.7074798659957E-05
(PID.TID 0000.0001) %MON dynstat_wvel_max             =   2.1718190089159E-08
(PID.TID 0000.0001) %MON dynstat_wvel_min             =  -1.3563892030506E-08
(PID.TID 0000.0001) %MON dynstat_wvel_mean            =  -2.7371308735585E-21
(PID.TID 0000.0001) %MON dynstat_wvel_sd              =   8.4766211139904E-09
(PID.TID 0000.0001) %MON dynstat_wvel_del2            =   4.2514672413804E-12
(PID.TID 0000.0001) %MON dynstat_theta_max            =   2.0000000000000E+01
(PID.TID 0000.0001) %MON dynstat_theta_min            =   2.0000000000000E+01
(PID.TID 0000.0001) %MON dynstat_theta_mean           =   2.0000000000000E+01
(PID.TID 0000.0001) %MON dynstat_theta_sd             =   3.8014036363165E-13
(PID.TID 0000.0001) %MON dynstat_theta_del2           =   0.0000000000000E+00
(PID.TID 0000.0001) %MON dynstat_salt_max             =   3.0000000000000E+01
(PID.TID 0000.0001) %MON dynstat_salt_min             =   3.0000000000000E+01
(PID.TID 0000.0001) %MON dynstat_salt_mean            =   2.9999999999999E+01
(PID.TID 0000.0001) %MON dynstat_salt_sd              =   5.5777604757167E-13
(PID.TID 0000.0001) %MON dynstat_salt_del2            =   0.0000000000000E+00
(PID.TID 0000.0001) %MON trAdv_CFL_u_max              =   5.0928690862598E-03
(PID.TID 0000.0001) %MON trAdv_CFL_v_max              =   4.7046981641125E-03
(PID.TID 0000.0001) %MON trAdv_CFL_w_max              =   5.7782792060700E-09
(PID.TID 0000.0001) %MON advcfl_uvel_max              =   5.0955105892173E-03
(PID.TID 0000.0001) %MON advcfl_vvel_max              =   4.7056356550789E-03
(PID.TID 0000.0001) %MON advcfl_wvel_max              =   1.0424731242796E-08
(PID.TID 0000.0001) %MON advcfl_W_hf_max              =   0.0000000000000E+00
(PID.TID 0000.0001) %MON pe_b_mean                    =   2.9715994944176E-06
(PID.TID 0000.0001) %MON ke_max                       =   3.6079354913571E-03
(PID.TID 0000.0001) %MON ke_mean                      =   5.0120801773540E-04
(PID.TID 0000.0001) %MON ke_vol                       =   6.8893493896486E+15
(PID.TID 0000.0001) %MON vort_r_min                   =  -8.7427134167828E-07
(PID.TID 0000.0001) %MON vort_r_max                   =   1.9981677059973E-06
(PID.TID 0000.0001) %MON vort_a_mean                  =   1.0600000000000E-04
(PID.TID 0000.0001) %MON vort_a_sd                    =   3.5373955601541E-06
(PID.TID 0000.0001) %MON vort_p_mean                  =   1.1652272308690E-04
(PID.TID 0000.0001) %MON vort_p_sd                    =   4.1763532659850E-05
(PID.TID 0000.0001) %MON surfExpan_theta_mean         =  -5.4682421553783E-20
(PID.TID 0000.0001) %MON surfExpan_salt_mean          =  -8.2021737550046E-20
(PID.TID 0000.0001) // =======================================================
(PID.TID 0000.0001) // End MONITOR dynamic field statistics
(PID.TID 0000.0001) // =======================================================
 cg2d: Sum(rhs),rhsMax =  -1.04989819177031E-03  1.23578000439682E-01
 cg2d: Sum(rhs),rhsMax =  -1.05019518095255E-03  1.23597760466485E-01
 cg2d: Sum(rhs),rhsMax =  -1.05049363598793E-03  1.23617477855865E-01
 cg2d: Sum(rhs),rhsMax =  -1.05079355510483E-03  1.23637152570419E-01
 cg2d: Sum(rhs),rhsMax =  -1.05109493584499E-03  1.23656784572842E-01
 cg2d: Sum(rhs),rhsMax =  -1.05139777606601E-03  1.23676373825954E-01
 cg2d: Sum(rhs),rhsMax =  -1.05170207375505E-03  1.23695920292689E-01
 cg2d: Sum(rhs),rhsMax =  -1.05200782626331E-03  1.23715423936093E-01
 cg2d: Sum(rhs),rhsMax =  -1.05231503174621E-03  1.23734884719319E-01
 cg2d: Sum(rhs),rhsMax =  -1.05262368784900E-03  1.23754302605651E-01
 cg2d: Sum(rhs),rhsMax =  -1.05293379247205E-03  1.23773677558469E-01
 cg2d: Sum(rhs),rhsMax =  -1.05324534298732E-03  1.23793009541273E-01
 cg2d: Sum(rhs),rhsMax =  -1.05355833710179E-03  1.23812298517688E-01
 cg2d: Sum(rhs),rhsMax =  -1.05387277282466E-03  1.23831544451436E-01
 cg2d: Sum(rhs),rhsMax =  -1.05418864743805E-03  1.23850747306366E-01
 cg2d: Sum(rhs),rhsMax =  -1.05450595855821E-03  1.23869907046439E-01
 cg2d: Sum(rhs),rhsMax =  -1.05482470376297E-03  1.23889023635727E-01
 cg2d: Sum(rhs),rhsMax =  -1.05514488072814E-03  1.23908097038420E-01
 cg2d: Sum(rhs),rhsMax =  -1.05546648677494E-03  1.23927127218822E-01
 cg2d: Sum(rhs),rhsMax =  -1.05578951977981E-03  1.23946114141354E-01
 cg2d: Sum(rhs),rhsMax =  -1.05611397711950E-03  1.23965057770547E-01
 cg2d: Sum(rhs),rhsMax =  -1.05643985638795E-03  1.23983958071052E-01
 cg2d: Sum(rhs),rhsMax =  -1.05676715438675E-03  1.24002815007632E-01
 cg2d: Sum(rhs),rhsMax =  -1.05709586913956E-03  1.24021628545168E-01
 cg2d: Sum(rhs),rhsMax =  -1.05742599830001E-03  1.24040398648656E-01
 cg2d: Sum(rhs),rhsMax =  -1.05775753867816E-03  1.24059125283202E-01
 cg2d: Sum(rhs),rhsMax =  -1.05809048786005E-03  1.24077808414036E-01
 cg2d: Sum(rhs),rhsMax =  -1.05842484328126E-03  1.24096448006499E-01
 cg2d: Sum(rhs),rhsMax =  -1.05876060236281E-03  1.24115044026047E-01
 cg2d: Sum(rhs),rhsMax =  -1.05909776205079E-03  1.24133596438251E-01
 cg2d: Sum(rhs),rhsMax =  -1.05943632023312E-03  1.24152105208802E-01
 cg2d: Sum(rhs),rhsMax =  -1.05977627379943E-03  1.24170570303508E-01
 cg2d: Sum(rhs),rhsMax =  -1.06011761978015E-03  1.24188991688283E-01
 cg2d: Sum(rhs),rhsMax =  -1.06046035611096E-03  1.24207369329169E-01
 cg2d: Sum(rhs),rhsMax =  -1.06080447931307E-03  1.24225703192313E-01
 cg2d: Sum(rhs),rhsMax =  -1.06114998728897E-03  1.24243993243991E-01
 cg2d: Sum(rhs),rhsMax =  -1.06149687687470E-03  1.24262239450584E-01
 cg2d: Sum(rhs),rhsMax =  -1.06184514541019E-03  1.24280441778599E-01
 cg2d: Sum(rhs),rhsMax =  -1.06219479006118E-03  1.24298600194649E-01
 cg2d: Sum(rhs),rhsMax =  -1.06254580789302E-03  1.24316714665469E-01
 cg2d: Sum(rhs),rhsMax =  -1.06289819642067E-03  1.24334785157916E-01
 cg2d: Sum(rhs),rhsMax =  -1.06325195213867E-03  1.24352811638952E-01
 cg2d: Sum(rhs),rhsMax =  -1.06360707250302E-03  1.24370794075664E-01
 cg2d: Sum(rhs),rhsMax =  -1.06396355499370E-03  1.24388732435257E-01
 cg2d: Sum(rhs),rhsMax =  -1.06432139637610E-03  1.24406626685045E-01
 cg2d: Sum(rhs),rhsMax =  -1.06468059366590E-03  1.24424476792471E-01
 cg2d: Sum(rhs),rhsMax =  -1.06504114402762E-03  1.24442282725080E-01
 cg2d: Sum(rhs),rhsMax =  -1.06540304461982E-03  1.24460044450548E-01
 cg2d: Sum(rhs),rhsMax =  -1.06576629267382E-03  1.24477761936662E-01
 cg2d: Sum(rhs),rhsMax =  -1.06613088467354E-03  1.24495435151325E-01
 cg2d: Sum(rhs),rhsMax =  -1.06649681833541E-03  1.24513064062562E-01
 cg2d: Sum(rhs),rhsMax =  -1.06686409025014E-03  1.24530648638505E-01
 cg2d: Sum(rhs),rhsMax =  -1.06723269772654E-03  1.24548188847424E-01
 cg2d: Sum(rhs),rhsMax =  -1.06760263754871E-03  1.24565684657684E-01
 cg2d: Sum(rhs),rhsMax =  -1.06797390672228E-03  1.24583136037785E-01
 cg2d: Sum(rhs),rhsMax =  -1.06834650262420E-03  1.24600542956334E-01
 cg2d: Sum(rhs),rhsMax =  -1.06872042159151E-03  1.24617905382057E-01
 cg2d: Sum(rhs),rhsMax =  -1.06909566119591E-03  1.24635223283808E-01
 cg2d: Sum(rhs),rhsMax =  -1.06947221791836E-03  1.24652496630546E-01
 cg2d: Sum(rhs),rhsMax =  -1.06985008931327E-03  1.24669725391355E-01
 cg2d: Sum(rhs),rhsMax =  -1.07022927160672E-03  1.24686909535437E-01
 cg2d: Sum(rhs),rhsMax =  -1.07060976227620E-03  1.24704049032107E-01
 cg2d: Sum(rhs),rhsMax =  -1.07099155807321E-03  1.24721143850812E-01
 cg2d: Sum(rhs),rhsMax =  -1.07137465633383E-03  1.24738193961099E-01
 cg2d: Sum(rhs),rhsMax =  -1.07175905308953E-03  1.24755199332647E-01
 cg2d: Sum(rhs),rhsMax =  -1.07214474611554E-03  1.24772159935247E-01
 cg2d: Sum(rhs),rhsMax =  -1.07253173220362E-03  1.24789075738812E-01
 cg2d: Sum(rhs),rhsMax =  -1.07292000787334E-03  1.24805946713374E-01
 cg2d: Sum(rhs),rhsMax =  -1.07330957050151E-03  1.24822772829082E-01
 cg2d: Sum(rhs),rhsMax =  -1.07370041674826E-03  1.24839554056200E-01
 cg2d: Sum(rhs),rhsMax =  -1.07409254357309E-03  1.24856290365121E-01
 cg2d: Sum(rhs),rhsMax =  -1.07448594751264E-03  1.24872981726350E-01
(PID.TID 0000.0001)      cg2d_init_res =   2.12773406703832E-03
(PID.TID 0000.0001)      cg2d_iters(min,last) =      -1      83
(PID.TID 0000.0001)      cg2d_last_res =   9.11932467629246E-08
(PID.TID 0000.0001) // =======================================================
(PID.TID 0000.0001) // Begin MONITOR dynamic field statistics
(PID.TID 0000.0001) // =======================================================
(PID.TID 0000.0001) %MON time_tsnumber                =                  4752
(PID.TID 0000.0001) %MON time_secondsf                =   5.7024000000000E+06
(PID.TID 0000.0001) %MON dynstat_eta_max              =   1.2721042613676E-01
(PID.TID 0000.0001) %MON dynstat_eta_min              =  -5.6862731031717E-02
(PID.TID 0000.0001) %MON dynstat_eta_mean             =   6.7086328015400E-07
(PID.TID 0000.0001) %MON dynstat_eta_sd               =   5.4482598051125E-02
(PID.TID 0000.0001) %MON dynstat_eta_del2             =   1.8685998065221E-05
(PID.TID 0000.0001) %MON dynstat_uvel_max             =   8.5749472774481E-02
(PID.TID 0000.0001) %MON dynstat_uvel_min             =  -4.0616594592454E-02
(PID.TID 0000.0001) %MON dynstat_uvel_mean            =  -1.1703209353816E-07
(PID.TID 0000.0001) %MON dynstat_uvel_sd              =   2.3788708311109E-02
(PID.TID 0000.0001) %MON dynstat_uvel_del2            =   4.1618024427124E-05
(PID.TID 0000.0001) %MON dynstat_vvel_max             =   7.9504481934714E-02
(PID.TID 0000.0001) %MON dynstat_vvel_min             =  -5.6633117573213E-02
(PID.TID 0000.0001) %MON dynstat_vvel_mean            =   2.1335820561435E-07
(PID.TID 0000.0001) %MON dynstat_vvel_sd              =   2.1843969352228E-02
(PID.TID 0000.0001) %MON dynstat_vvel_del2            =   4.7337800320798E-05
(PID.TID 0000.0001) %MON dynstat_wvel_max             =   2.1523290680198E-08
(PID.TID 0000.0001) %MON dynstat_wvel_min             =  -1.3587443577708E-08
(PID.TID 0000.0001) %MON dynstat_wvel_mean            =  -2.0520577790093E-21
(PID.TID 0000.0001) %MON dynstat_wvel_sd              =   8.3943335045512E-09
(PID.TID 0000.0001) %MON dynstat_wvel_del2            =   4.2284260848871E-12
(PID.TID 0000.0001) %MON dynstat_theta_max            =   2.0000000000000E+01
(PID.TID 0000.0001) %MON dynstat_theta_min            =   2.0000000000000E+01
(PID.TID 0000.0001) %MON dynstat_theta_mean           =   2.0000000000000E+01
(PID.TID 0000.0001) %MON dynstat_theta_sd             =   3.8014036363165E-13
(PID.TID 0000.0001) %MON dynstat_theta_del2           =   0.0000000000000E+00
(PID.TID 0000.0001) %MON dynstat_salt_max             =   3.0000000000000E+01
(PID.TID 0000.0001) %MON dynstat_salt_min             =   3.0000000000000E+01
(PID.TID 0000.0001) %MON dynstat_salt_mean            =   2.9999999999999E+01
(PID.TID 0000.0001) %MON dynstat_salt_sd              =   5.5777604757167E-13
(PID.TID 0000.0001) %MON dynstat_salt_del2            =   0.0000000000000E+00
(PID.TID 0000.0001) %MON trAdv_CFL_u_max              =   5.1422884795808E-03
(PID.TID 0000.0001) %MON trAdv_CFL_v_max              =   4.7692752585938E-03
(PID.TID 0000.0001) %MON trAdv_CFL_w_max              =   5.7264498372492E-09
(PID.TID 0000.0001) %MON advcfl_uvel_max              =   5.1449683664688E-03
(PID.TID 0000.0001) %MON advcfl_vvel_max              =   4.7702689160829E-03
(PID.TID 0000.0001) %MON advcfl_wvel_max              =   1.0331179526495E-08
(PID.TID 0000.0001) %MON advcfl_W_hf_max              =   0.0000000000000E+00
(PID.TID 0000.0001) %MON pe_b_mean                    =   3.0432589771216E-06
(PID.TID 0000.0001) %MON ke_max                       =   3.6792613962224E-03
(PID.TID 0000.0001) %MON ke_mean                      =   5.1194059010475E-04
(PID.TID 0000.0001) %MON ke_vol                       =   6.8893493896486E+15
(PID.TID 0000.0001) %MON vort_r_min                   =  -8.8555599221098E-07
(PID.TID 0000.0001) %MON vort_r_max                   =   2.0137798643916E-06
(PID.TID 0000.0001) %MON vort_a_mean                  =   1.0600000000000E-04
(PID.TID 0000.0001) %MON vort_a_sd                    =   3.5377355729721E-06
(PID.TID 0000.0001) %MON vort_p_mean                  =   1.1652272308690E-04
(PID.TID 0000.0001) %MON vort_p_sd                    =   4.1764220332090E-05
(PID.TID 0000.0001) %MON surfExpan_theta_mean         =  -4.1037474653017E-20
(PID.TID 0000.0001) %MON surfExpan_salt_mean          =  -6.1546106482840E-20
(PID.TID 0000.0001) // =======================================================
(PID.TID 0000.0001) // End MONITOR dynamic field statistics
(PID.TID 0000.0001) // =======================================================
 cg2d: Sum(rhs),rhsMax =  -1.07488062607794E-03  1.24889628110511E-01
 cg2d: Sum(rhs),rhsMax =  -1.07526712303774E-03  1.24907327557573E-01
 cg2d: Sum(rhs),rhsMax =  -1.07562566246943E-03  1.24928375794061E-01
 cg2d: Sum(rhs),rhsMax =  -1.07598541005093E-03  1.24949383758546E-01
 cg2d: Sum(rhs),rhsMax =  -1.07634636241343E-03  1.24970351410864E-01
 cg2d: Sum(rhs),rhsMax =  -1.07670851647534E-03  1.24991278710950E-01
 cg2d: Sum(rhs),rhsMax =  -1.07707186898528E-03  1.25012165618849E-01
 cg2d: Sum(rhs),rhsMax =  -1.07743641665843E-03  1.25033012094705E-01
 cg2d: Sum(rhs),rhsMax =  -1.07780215631298E-03  1.25053818098761E-01
 cg2d: Sum(rhs),rhsMax =  -1.07816908528087E-03  1.25074583591370E-01
 cg2d: Sum(rhs),rhsMax =  -1.07853719922111E-03  1.25095308532984E-01
 cg2d: Sum(rhs),rhsMax =  -1.07890649603301E-03  1.25115992884159E-01
 cg2d: Sum(rhs),rhsMax =  -1.07927697174935E-03  1.25136636605552E-01
 cg2d: Sum(rhs),rhsMax =  -1.07964862342716E-03  1.25157239657927E-01
 cg2d: Sum(rhs),rhsMax =  -1.08002144787148E-03  1.25177802002147E-01
 cg2d: Sum(rhs),rhsMax =  -1.08039544201349E-03  1.25198323599184E-01
 cg2d: Sum(rhs),rhsMax =  -1.08077060260700E-03  1.25218804410105E-01
 cg2d: Sum(rhs),rhsMax =  -1.08114692627277E-03  1.25239244396091E-01
 cg2d: Sum(rhs),rhsMax =  -1.08152440962344E-03  1.25259643518417E-01
 cg2d: Sum(rhs),rhsMax =  -1.08190304970767E-03  1.25280001738471E-01
 cg2d: Sum(rhs),rhsMax =  -1.08228284334109E-03  1.25300319017737E-01
 cg2d: Sum(rhs),rhsMax =  -1.08266378733126E-03  1.25320595317803E-01
 cg2d: Sum(rhs),rhsMax =  -1.08304587836398E-03  1.25340830600366E-01
 cg2d: Sum(rhs),rhsMax =  -1.08342911313942E-03  1.25361024827229E-01
 cg2d: Sum(rhs),rhsMax =  -1.08381348873915E-03  1.25381177960291E-01
 cg2d: Sum(rhs),rhsMax =  -1.08419900215282E-03  1.25401289961562E-01
 cg2d: Sum(rhs),rhsMax =  -1.08458564986132E-03  1.25421360793152E-01
 cg2d: Sum(rhs),rhsMax =  -1.08497342843386E-03  1.25441390417274E-01
 cg2d: Sum(rhs),rhsMax =  -1.08536233544479E-03  1.25461378796255E-01
 cg2d: Sum(rhs),rhsMax =  -1.08575236701329E-03  1.25481325892516E-01
 cg2d: Sum(rhs),rhsMax =  -1.08614352037860E-03  1.25501231668593E-01
 cg2d: Sum(rhs),rhsMax =  -1.08653579222150E-03  1.25521096087115E-01
 cg2d: Sum(rhs),rhsMax =  -1.08692917960051E-03  1.25540919110823E-01
 cg2d: Sum(rhs),rhsMax =  -1.08732367896240E-03  1.25560700702566E-01
 cg2d: Sum(rhs),rhsMax =  -1.08771928756808E-03  1.25580440825290E-01
 cg2d: Sum(rhs),rhsMax =  -1.08811600201048E-03  1.25600139442049E-01
 cg2d: Sum(rhs),rhsMax =  -1.08851381930020E-03  1.25619796516007E-01
 cg2d: Sum(rhs),rhsMax =  -1.08891273607506E-03  1.25639412010429E-01
 cg2d: Sum(rhs),rhsMax =  -1.08931274959509E-03  1.25658985888684E-01
 cg2d: Sum(rhs),rhsMax =  -1.08971385672310E-03  1.25678518114254E-01
 cg2d: Sum(rhs),rhsMax =  -1.09011605375674E-03  1.25698008650715E-01
 cg2d: Sum(rhs),rhsMax =  -1.09051933831868E-03  1.25717457461758E-01
 cg2d: Sum(rhs),rhsMax =  -1.09092370699778E-03  1.25736864511177E-01
 cg2d: Sum(rhs),rhsMax =  -1.09132915660131E-03  1.25756229762871E-01
 cg2d: Sum(rhs),rhsMax =  -1.09173568424659E-03  1.25775553180844E-01
 cg2d: Sum(rhs),rhsMax =  -1.09214328687142E-03  1.25794834729211E-01
 cg2d: Sum(rhs),rhsMax =  -1.09255196146343E-03  1.25814074372188E-01
 cg2d: Sum(rhs),rhsMax =  -1.09296170465403E-03  1.25833272074100E-01
 cg2d: Sum(rhs),rhsMax =  -1.09337251383109E-03  1.25852427799372E-01
 cg2d: Sum(rhs),rhsMax =  -1.09378438576042E-03  1.25871541512548E-01
 cg2d: Sum(rhs),rhsMax =  -1.09419731730282E-03  1.25890613178266E-01
 cg2d: Sum(rhs),rhsMax =  -1.09461130557129E-03  1.25909642761279E-01
 cg2d: Sum(rhs),rhsMax =  -1.09502634745012E-03  1.25928630226439E-01
 cg2d: Sum(rhs),rhsMax =  -1.09544244007184E-03  1.25947575538715E-01
 cg2d: Sum(rhs),rhsMax =  -1.09585958024029E-03  1.25966478663172E-01
 cg2d: Sum(rhs),rhsMax =  -1.09627776553315E-03  1.25985339564986E-01
 cg2d: Sum(rhs),rhsMax =  -1.09669699209798E-03  1.26004158209446E-01
 cg2d: Sum(rhs),rhsMax =  -1.09711725758131E-03  1.26022934561934E-01
 cg2d: Sum(rhs),rhsMax =  -1.09753855911951E-03  1.26041668587958E-01
 cg2d: Sum(rhs),rhsMax =  -1.09796089356904E-03  1.26060360253116E-01
 cg2d: Sum(rhs),rhsMax =  -1.09838425769758E-03  1.26079009523122E-01
 cg2d: Sum(rhs),rhsMax =  -1.09880864923393E-03  1.26097616363795E-01
 cg2d: Sum(rhs),rhsMax =  -1.09923406494907E-03  1.26116180741066E-01
 cg2d: Sum(rhs),rhsMax =  -1.09966050173141E-03  1.26134702620965E-01
 cg2d: Sum(rhs),rhsMax =  -1.10008795707654E-03  1.26153181969635E-01
 cg2d: Sum(rhs),rhsMax =  -1.10051642803748E-03  1.26171618753329E-01
 cg2d: Sum(rhs),rhsMax =  -1.10094591158819E-03  1.26190012938403E-01
 cg2d: Sum(rhs),rhsMax =  -1.10137640502648E-03  1.26208364491323E-01
 cg2d: Sum(rhs),rhsMax =  -1.10180790532088E-03  1.26226673378665E-01
 cg2d: Sum(rhs),rhsMax =  -1.10224041003704E-03  1.26244939567107E-01
 cg2d: Sum(rhs),rhsMax =  -1.10267391582139E-03  1.26263163023441E-01
 cg2d: Sum(rhs),rhsMax =  -1.10310842033840E-03  1.26281343714564E-01
(PID.TID 0000.0001)      cg2d_init_res =   2.09670081262974E-03
(PID.TID 0000.0001)      cg2d_iters(min,last) =      -1      83
(PID.TID 0000.0001)      cg2d_last_res =   9.19730748842266E-08
(PID.TID 0000.0001) // =======================================================
(PID.TID 0000.0001) // Begin MONITOR dynamic field statistics
(PID.TID 0000.0001) // =======================================================
(PID.TID 0000.0001) %MON time_tsnumber                =                  4824
(PID.TID 0000.0001) %MON time_secondsf                =   5.7888000000000E+06
(PID.TID 0000.0001) %MON dynstat_eta_max              =   1.2869455309827E-01
(PID.TID 0000.0001) %MON dynstat_eta_min              =  -5.7288558946245E-02
(PID.TID 0000.0001) %MON dynstat_eta_mean             =   6.9652804009052E-07
(PID.TID 0000.0001) %MON dynstat_eta_sd               =   5.5121274177833E-02
(PID.TID 0000.0001) %MON dynstat_eta_del2             =   1.8855870835594E-05
(PID.TID 0000.0001) %MON dynstat_uvel_max             =   8.6614714685285E-02
(PID.TID 0000.0001) %MON dynstat_uvel_min             =  -4.1527568410550E-02
(PID.TID 0000.0001) %MON dynstat_uvel_mean            =  -1.1761542748955E-07
(PID.TID 0000.0001) %MON dynstat_uvel_sd              =   2.4041566415168E-02
(PID.TID 0000.0001) %MON dynstat_uvel_del2            =   4.2125869777470E-05
(PID.TID 0000.0001) %MON dynstat_vvel_max             =   8.0630699254239E-02
(PID.TID 0000.0001) %MON dynstat_vvel_min             =  -5.7416081966429E-02
(PID.TID 0000.0001) %MON dynstat_vvel_mean            =   2.1475440338024E-07
(PID.TID 0000.0001) %MON dynstat_vvel_sd              =   2.2068396682367E-02
(PID.TID 0000.0001) %MON dynstat_vvel_del2            =   4.7572511522999E-05
(PID.TID 0000.0001) %MON dynstat_wvel_max             =   2.1347857754736E-08
(PID.TID 0000.0001) %MON dynstat_wvel_min             =  -1.3599975170800E-08
(PID.TID 0000.0001) %MON dynstat_wvel_mean            =   5.6859332491715E-21
(PID.TID 0000.0001) %MON dynstat_wvel_sd              =   8.3144436319903E-09
(PID.TID 0000.0001) %MON dynstat_wvel_del2            =   4.2062640640323E-12
(PID.TID 0000.0001) %MON dynstat_theta_max            =   2.0000000000000E+01
(PID.TID 0000.0001) %MON dynstat_theta_min            =   2.0000000000000E+01
(PID.TID 0000.0001) %MON dynstat_theta_mean           =   2.0000000000000E+01
(PID.TID 0000.0001) %MON dynstat_theta_sd             =   3.8014036363165E-13
(PID.TID 0000.0001) %MON dynstat_theta_del2           =   0.0000000000000E+00
(PID.TID 0000.0001) %MON dynstat_salt_max             =   3.0000000000000E+01
(PID.TID 0000.0001) %MON dynstat_salt_min             =   3.0000000000000E+01
(PID.TID 0000.0001) %MON dynstat_salt_mean            =   2.9999999999999E+01
(PID.TID 0000.0001) %MON dynstat_salt_sd              =   5.5777604757167E-13
(PID.TID 0000.0001) %MON dynstat_salt_del2            =   0.0000000000000E+00
(PID.TID 0000.0001) %MON trAdv_CFL_u_max              =   5.1938988017759E-03
(PID.TID 0000.0001) %MON trAdv_CFL_v_max              =   4.8369589082438E-03
(PID.TID 0000.0001) %MON trAdv_CFL_w_max              =   5.6773110368404E-09
(PID.TID 0000.0001) %MON advcfl_uvel_max              =   5.1968828811171E-03
(PID.TID 0000.0001) %MON advcfl_vvel_max              =   4.8378419552544E-03
(PID.TID 0000.0001) %MON advcfl_wvel_max              =   1.0246971722273E-08
(PID.TID 0000.0001) %MON advcfl_W_hf_max              =   0.0000000000000E+00
(PID.TID 0000.0001) %MON pe_b_mean                    =   3.1150268169270E-06
(PID.TID 0000.0001) %MON ke_max                       =   3.7533463032125E-03
(PID.TID 0000.0001) %MON ke_mean                      =   5.2271348431672E-04
(PID.TID 0000.0001) %MON ke_vol                       =   6.8893493896486E+15
(PID.TID 0000.0001) %MON vort_r_min                   =  -8.9627502598556E-07
(PID.TID 0000.0001) %MON vort_r_max                   =   2.0284139978294E-06
(PID.TID 0000.0001) %MON vort_a_mean                  =   1.0600000000000E-04
(PID.TID 0000.0001) %MON vort_a_sd                    =   3.5380731846397E-06
(PID.TID 0000.0001) %MON vort_p_mean                  =   1.1652272308690E-04
(PID.TID 0000.0001) %MON vort_p_sd                    =   4.1764885335045E-05
(PID.TID 0000.0001) %MON surfExpan_theta_mean         =   1.1378599790785E-19
(PID.TID 0000.0001) %MON surfExpan_salt_mean          =   1.7067647048760E-19
(PID.TID 0000.0001) // =======================================================
(PID.TID 0000.0001) // End MONITOR dynamic field statistics
(PID.TID 0000.0001) // =======================================================
 cg2d: Sum(rhs),rhsMax =  -1.10354392074064E-03  1.26299481607485E-01
 cg2d: Sum(rhs),rhsMax =  -1.10398041437625E-03  1.26317576669316E-01
 cg2d: Sum(rhs),rhsMax =  -1.10441789796221E-03  1.26335628867284E-01
 cg2d: Sum(rhs),rhsMax =  -1.10485636909737E-03  1.26353638168718E-01
 cg2d: Sum(rhs),rhsMax =  -1.10529582522859E-03  1.26371604541059E-01
 cg2d: Sum(rhs),rhsMax =  -1.10573626309370E-03  1.26389527951860E-01
 cg2d: Sum(rhs),rhsMax =  -1.10617768072546E-03  1.26407408368770E-01
 cg2d: Sum(rhs),rhsMax =  -1.10662007485708E-03  1.26425245759566E-01
 cg2d: Sum(rhs),rhsMax =  -1.10706344292641E-03  1.26443040092119E-01
 cg2d: Sum(rhs),rhsMax =  -1.10750778237052E-03  1.26460791334415E-01
 cg2d: Sum(rhs),rhsMax =  -1.10795309047121E-03  1.26478499454546E-01
 cg2d: Sum(rhs),rhsMax =  -1.10839936480523E-03  1.26496164420721E-01
 cg2d: Sum(rhs),rhsMax =  -1.10884660252178E-03  1.26513786201243E-01
 cg2d: Sum(rhs),rhsMax =  -1.10929480105065E-03  1.26531364764547E-01
 cg2d: Sum(rhs),rhsMax =  -1.10974395807222E-03  1.26548900079154E-01
 cg2d: Sum(rhs),rhsMax =  -1.11019407065552E-03  1.26566392113706E-01
 cg2d: Sum(rhs),rhsMax =  -1.11064513657041E-03  1.26583840836964E-01
 cg2d: Sum(rhs),rhsMax =  -1.11109715271359E-03  1.26601246217772E-01
 cg2d: Sum(rhs),rhsMax =  -1.11155011670410E-03  1.26618608225112E-01
 cg2d: Sum(rhs),rhsMax =  -1.11200402618506E-03  1.26635926828060E-01
 cg2d: Sum(rhs),rhsMax =  -1.11245887890649E-03  1.26653201995805E-01
 cg2d: Sum(rhs),rhsMax =  -1.11291467228852E-03  1.26670433697646E-01
 cg2d: Sum(rhs),rhsMax =  -1.11337140373121E-03  1.26687621902999E-01
 cg2d: Sum(rhs),rhsMax =  -1.11382907067838E-03  1.26704766581379E-01
 cg2d: Sum(rhs),rhsMax =  -1.11428767117314E-03  1.26721867702418E-01
 cg2d: Sum(rhs),rhsMax =  -1.11474720195160E-03  1.26738925235856E-01
 cg2d: Sum(rhs),rhsMax =  -1.11520766099558E-03  1.26755939151545E-01
 cg2d: Sum(rhs),rhsMax =  -1.11566904647160E-03  1.26772909419445E-01
 cg2d: Sum(rhs),rhsMax =  -1.11613135524207E-03  1.26789836009629E-01
 cg2d: Sum(rhs),rhsMax =  -1.11659458533863E-03  1.26806718892281E-01
 cg2d: Sum(rhs),rhsMax =  -1.11705873401615E-03  1.26823558037693E-01
 cg2d: Sum(rhs),rhsMax =  -1.11752379936911E-03  1.26840353416269E-01
 cg2d: Sum(rhs),rhsMax =  -1.11798977914688E-03  1.26857104998527E-01
 cg2d: Sum(rhs),rhsMax =  -1.11845667064919E-03  1.26873812755093E-01
 cg2d: Sum(rhs),rhsMax =  -1.11892447201834E-03  1.26890476656701E-01
 cg2d: Sum(rhs),rhsMax =  -1.11939318050344E-03  1.26907096674202E-01
 cg2d: Sum(rhs),rhsMax =  -1.11986279430295E-03  1.26923672778558E-01
 cg2d: Sum(rhs),rhsMax =  -1.12033331088898E-03  1.26940204940830E-01
 cg2d: Sum(rhs),rhsMax =  -1.12080472828805E-03  1.26956693132213E-01
 cg2d: Sum(rhs),rhsMax =  -1.12127704424696E-03  1.26973137323993E-01
 cg2d: Sum(rhs),rhsMax =  -1.12175025655457E-03  1.26989537487578E-01
 cg2d: Sum(rhs),rhsMax =  -1.12222436313614E-03  1.27005893594482E-01
 cg2d: Sum(rhs),rhsMax =  -1.12269936162946E-03  1.27022205616338E-01
 cg2d: Sum(rhs),rhsMax =  -1.12317525010701E-03  1.27038473524881E-01
 cg2d: Sum(rhs),rhsMax =  -1.12365202647196E-03  1.27054697291965E-01
 cg2d: Sum(rhs),rhsMax =  -1.12412968820685E-03  1.27070876889559E-01
 cg2d: Sum(rhs),rhsMax =  -1.12460823382675E-03  1.27087012289733E-01
 cg2d: Sum(rhs),rhsMax =  -1.12508766074000E-03  1.27103103464673E-01
 cg2d: Sum(rhs),rhsMax =  -1.12556796759330E-03  1.27119150386686E-01
 cg2d: Sum(rhs),rhsMax =  -1.12604915184516E-03  1.27135153028180E-01
 cg2d: Sum(rhs),rhsMax =  -1.12653121179676E-03  1.27151111361679E-01
 cg2d: Sum(rhs),rhsMax =  -1.12701414504669E-03  1.27167025359822E-01
 cg2d: Sum(rhs),rhsMax =  -1.12749794966311E-03  1.27182894995360E-01
 cg2d: Sum(rhs),rhsMax =  -1.12798262434314E-03  1.27198720241150E-01
 cg2d: Sum(rhs),rhsMax =  -1.12846816650599E-03  1.27214501070167E-01
 cg2d: Sum(rhs),rhsMax =  -1.12895457460120E-03  1.27230237455506E-01
 cg2d: Sum(rhs),rhsMax =  -1.12944184636655E-03  1.27245929370359E-01
 cg2d: Sum(rhs),rhsMax =  -1.12992998007755E-03  1.27261576788038E-01
 cg2d: Sum(rhs),rhsMax =  -1.13041897404182E-03  1.27277179681973E-01
 cg2d: Sum(rhs),rhsMax =  -1.13090882626408E-03  1.27292738025700E-01
 cg2d: Sum(rhs),rhsMax =  -1.13139953511276E-03  1.27308251792875E-01
 cg2d: Sum(rhs),rhsMax =  -1.13189109839554E-03  1.27323720957256E-01
 cg2d: Sum(rhs),rhsMax =  -1.13238351492270E-03  1.27339145492725E-01
 cg2d: Sum(rhs),rhsMax =  -1.13287678245342E-03  1.27354525373274E-01
 cg2d: Sum(rhs),rhsMax =  -1.13337089930223E-03  1.27369860573003E-01
 cg2d: Sum(rhs),rhsMax =  -1.13386586382669E-03  1.27385151066133E-01
 cg2d: Sum(rhs),rhsMax =  -1.13436167417943E-03  1.27400396826997E-01
 cg2d: Sum(rhs),rhsMax =  -1.13485832887389E-03  1.27415597830039E-01
 cg2d: Sum(rhs),rhsMax =  -1.13535582605721E-03  1.27430754049814E-01
 cg2d: Sum(rhs),rhsMax =  -1.13585416428658E-03  1.27445865461000E-01
 cg2d: Sum(rhs),rhsMax =  -1.13635334165343E-03  1.27460932038376E-01
 cg2d: Sum(rhs),rhsMax =  -1.13685335661140E-03  1.27475953756848E-01
(PID.TID 0000.0001)      cg2d_init_res =   2.06923697868394E-03
(PID.TID 0000.0001)      cg2d_iters(min,last) =      -1      83
(PID.TID 0000.0001)      cg2d_last_res =   9.27101457909738E-08
(PID.TID 0000.0001) // =======================================================
(PID.TID 0000.0001) // Begin MONITOR dynamic field statistics
(PID.TID 0000.0001) // =======================================================
(PID.TID 0000.0001) %MON time_tsnumber                =                  4896
(PID.TID 0000.0001) %MON time_secondsf                =   5.8752000000000E+06
(PID.TID 0000.0001) %MON dynstat_eta_max              =   1.3024671758798E-01
(PID.TID 0000.0001) %MON dynstat_eta_min              =  -5.7702760461144E-02
(PID.TID 0000.0001) %MON dynstat_eta_mean             =   7.2464023411500E-07
(PID.TID 0000.0001) %MON dynstat_eta_sd               =   5.5753460939224E-02
(PID.TID 0000.0001) %MON dynstat_eta_del2             =   1.9022794498952E-05
(PID.TID 0000.0001) %MON dynstat_uvel_max             =   8.7504008469390E-02
(PID.TID 0000.0001) %MON dynstat_uvel_min             =  -4.2446652273018E-02
(PID.TID 0000.0001) %MON dynstat_uvel_mean            =  -1.1673895129713E-07
(PID.TID 0000.0001) %MON dynstat_uvel_sd              =   2.4295544757706E-02
(PID.TID 0000.0001) %MON dynstat_uvel_del2            =   4.2641975934449E-05
(PID.TID 0000.0001) %MON dynstat_vvel_max             =   8.1617754132266E-02
(PID.TID 0000.0001) %MON dynstat_vvel_min             =  -5.8177844875966E-02
(PID.TID 0000.0001) %MON dynstat_vvel_mean            =   2.1642950981162E-07
(PID.TID 0000.0001) %MON dynstat_vvel_sd              =   2.2288089503182E-02
(PID.TID 0000.0001) %MON dynstat_vvel_del2            =   4.7779112760340E-05
(PID.TID 0000.0001) %MON dynstat_wvel_max             =   2.1175728102971E-08
(PID.TID 0000.0001) %MON dynstat_wvel_min             =  -1.3656174815260E-08
(PID.TID 0000.0001) %MON dynstat_wvel_mean            =   1.8731700240298E-21
(PID.TID 0000.0001) %MON dynstat_wvel_sd              =   8.2371056025291E-09
(PID.TID 0000.0001) %MON dynstat_wvel_del2            =   4.1850845208562E-12
(PID.TID 0000.0001) %MON dynstat_theta_max            =   2.0000000000000E+01
(PID.TID 0000.0001) %MON dynstat_theta_min            =   2.0000000000000E+01
(PID.TID 0000.0001) %MON dynstat_theta_mean           =   2.0000000000000E+01
(PID.TID 0000.0001) %MON dynstat_theta_sd             =   3.8014036363165E-13
(PID.TID 0000.0001) %MON dynstat_theta_del2           =   0.0000000000000E+00
(PID.TID 0000.0001) %MON dynstat_salt_max             =   3.0000000000000E+01
(PID.TID 0000.0001) %MON dynstat_salt_min             =   3.0000000000000E+01
(PID.TID 0000.0001) %MON dynstat_salt_mean            =   2.9999999999999E+01
(PID.TID 0000.0001) %MON dynstat_salt_sd              =   5.5777604757167E-13
(PID.TID 0000.0001) %MON dynstat_salt_del2            =   0.0000000000000E+00
(PID.TID 0000.0001) %MON trAdv_CFL_u_max              =   5.2472133258517E-03
(PID.TID 0000.0001) %MON trAdv_CFL_v_max              =   4.8963030824852E-03
(PID.TID 0000.0001) %MON trAdv_CFL_w_max              =   5.6315486552854E-09
(PID.TID 0000.0001) %MON advcfl_uvel_max              =   5.2502405081634E-03
(PID.TID 0000.0001) %MON advcfl_vvel_max              =   4.8970652479359E-03
(PID.TID 0000.0001) %MON advcfl_wvel_max              =   1.0164349489426E-08
(PID.TID 0000.0001) %MON advcfl_W_hf_max              =   0.0000000000000E+00
(PID.TID 0000.0001) %MON pe_b_mean                    =   3.1868891455719E-06
(PID.TID 0000.0001) %MON ke_max                       =   3.8302835701658E-03
(PID.TID 0000.0001) %MON ke_mean                      =   5.3352170343248E-04
(PID.TID 0000.0001) %MON ke_vol                       =   6.8893493896486E+15
(PID.TID 0000.0001) %MON vort_r_min                   =  -9.0643772625747E-07
(PID.TID 0000.0001) %MON vort_r_max                   =   2.0419691566498E-06
(PID.TID 0000.0001) %MON vort_a_mean                  =   1.0600000000000E-04
(PID.TID 0000.0001) %MON vort_a_sd                    =   3.5384084727262E-06
(PID.TID 0000.0001) %MON vort_p_mean                  =   1.1652272308690E-04
(PID.TID 0000.0001) %MON vort_p_sd                    =   4.1765528348713E-05
(PID.TID 0000.0001) %MON surfExpan_theta_mean         =   3.7568447118651E-20
(PID.TID 0000.0001) %MON surfExpan_salt_mean          =   5.6349512710262E-20
(PID.TID 0000.0001) // =======================================================
(PID.TID 0000.0001) // End MONITOR dynamic field statistics
(PID.TID 0000.0001) // =======================================================
 cg2d: Sum(rhs),rhsMax =  -1.13735420775615E-03  1.27490930591428E-01
 cg2d: Sum(rhs),rhsMax =  -1.13785589335400E-03  1.27505862517244E-01
 cg2d: Sum(rhs),rhsMax =  -1.13835841158093E-03  1.27520749509539E-01
 cg2d: Sum(rhs),rhsMax =  -1.13886176094238E-03  1.27535591543664E-01
 cg2d: Sum(rhs),rhsMax =  -1.13936594059896E-03  1.27550388595099E-01
 cg2d: Sum(rhs),rhsMax =  -1.13987094823953E-03  1.27565140639421E-01
 cg2d: Sum(rhs),rhsMax =  -1.14037678273348E-03  1.27579847652328E-01
 cg2d: Sum(rhs),rhsMax =  -1.14088344256705E-03  1.27594509609639E-01
 cg2d: Sum(rhs),rhsMax =  -1.14139092606235E-03  1.27609126487279E-01
 cg2d: Sum(rhs),rhsMax =  -1.14189923218745E-03  1.27623698261294E-01
 cg2d: Sum(rhs),rhsMax =  -1.14240835932437E-03  1.27638224907834E-01
 cg2d: Sum(rhs),rhsMax =  -1.14291830614152E-03  1.27652706403179E-01
 cg2d: Sum(rhs),rhsMax =  -1.14342907088257E-03  1.27667142723711E-01
 cg2d: Sum(rhs),rhsMax =  -1.14394065254034E-03  1.27681533845932E-01
 cg2d: Sum(rhs),rhsMax =  -1.14445304959473E-03  1.27695879746461E-01
 cg2d: Sum(rhs),rhsMax =  -1.14496626121256E-03  1.27710180402026E-01
 cg2d: Sum(rhs),rhsMax =  -1.14548028578372E-03  1.27724435789478E-01
 cg2d: Sum(rhs),rhsMax =  -1.14599512174933E-03  1.27738645885776E-01
 cg2d: Sum(rhs),rhsMax =  -1.14651076805317E-03  1.27752810667999E-01
 cg2d: Sum(rhs),rhsMax =  -1.14702722332567E-03  1.27766930113335E-01
 cg2d: Sum(rhs),rhsMax =  -1.14754448624806E-03  1.27781004199099E-01
 cg2d: Sum(rhs),rhsMax =  -1.14806255593645E-03  1.27795032902710E-01
 cg2d: Sum(rhs),rhsMax =  -1.14858143096175E-03  1.27809016201707E-01
 cg2d: Sum(rhs),rhsMax =  -1.14910111015136E-03  1.27822954073745E-01
 cg2d: Sum(rhs),rhsMax =  -1.14962159221413E-03  1.27836846496594E-01
 cg2d: Sum(rhs),rhsMax =  -1.15014287635844E-03  1.27850693448141E-01
 cg2d: Sum(rhs),rhsMax =  -1.15066496117515E-03  1.27864494906382E-01
 cg2d: Sum(rhs),rhsMax =  -1.15118784587628E-03  1.27878250849443E-01
 cg2d: Sum(rhs),rhsMax =  -1.15171152910928E-03  1.27891961255549E-01
 cg2d: Sum(rhs),rhsMax =  -1.15223600984430E-03  1.27905626103058E-01
 cg2d: Sum(rhs),rhsMax =  -1.15276128686315E-03  1.27919245370429E-01
 cg2d: Sum(rhs),rhsMax =  -1.15328735933039E-03  1.27932819036245E-01
 cg2d: Sum(rhs),rhsMax =  -1.15381422660670E-03  1.27946347079206E-01
 cg2d: Sum(rhs),rhsMax =  -1.15434188650688E-03  1.27959829478127E-01
 cg2d: Sum(rhs),rhsMax =  -1.15487033938337E-03  1.27973266211934E-01
 cg2d: Sum(rhs),rhsMax =  -1.15539958351400E-03  1.27986657259676E-01
 cg2d: Sum(rhs),rhsMax =  -1.15592961811166E-03  1.28000002600518E-01
 cg2d: Sum(rhs),rhsMax =  -1.15646044238890E-03  1.28013302213738E-01
 cg2d: Sum(rhs),rhsMax =  -1.15699205527669E-03  1.28026556078735E-01
 cg2d: Sum(rhs),rhsMax =  -1.15752445605148E-03  1.28039764175020E-01
 cg2d: Sum(rhs),rhsMax =  -1.15805764352003E-03  1.28052926482226E-01
 cg2d: Sum(rhs),rhsMax =  -1.15859161702826E-03  1.28066042980096E-01
 cg2d: Sum(rhs),rhsMax =  -1.15912637569111E-03  1.28079113648496E-01
 cg2d: Sum(rhs),rhsMax =  -1.15966191884613E-03  1.28092138467409E-01
 cg2d: Sum(rhs),rhsMax =  -1.16019824515100E-03  1.28105117416930E-01
 cg2d: Sum(rhs),rhsMax =  -1.16073535416604E-03  1.28118050477276E-01
 cg2d: Sum(rhs),rhsMax =  -1.16126735358690E-03  1.28131587719665E-01
 cg2d: Sum(rhs),rhsMax =  -1.16176311042187E-03  1.28149162391483E-01
 cg2d: Sum(rhs),rhsMax =  -1.16225958141979E-03  1.28166695280810E-01
 cg2d: Sum(rhs),rhsMax =  -1.16275676647970E-03  1.28184186356575E-01
 cg2d: Sum(rhs),rhsMax =  -1.16325466459852E-03  1.28201635587804E-01
 cg2d: Sum(rhs),rhsMax =  -1.16375327490591E-03  1.28219042943632E-01
 cg2d: Sum(rhs),rhsMax =  -1.16425259700830E-03  1.28236408393286E-01
 cg2d: Sum(rhs),rhsMax =  -1.16475262973218E-03  1.28253731906105E-01
 cg2d: Sum(rhs),rhsMax =  -1.16525337254045E-03  1.28271013451519E-01
 cg2d: Sum(rhs),rhsMax =  -1.16575482492090E-03  1.28288252999068E-01
 cg2d: Sum(rhs),rhsMax =  -1.16625698613687E-03  1.28305450518395E-01
 cg2d: Sum(rhs),rhsMax =  -1.16675985578672E-03  1.28322605979234E-01
 cg2d: Sum(rhs),rhsMax =  -1.16726343294365E-03  1.28339719351429E-01
 cg2d: Sum(rhs),rhsMax =  -1.16776771702961E-03  1.28356790604928E-01
 cg2d: Sum(rhs),rhsMax =  -1.16827270733812E-03  1.28373819709776E-01
 cg2d: Sum(rhs),rhsMax =  -1.16877840361088E-03  1.28390806636119E-01
 cg2d: Sum(rhs),rhsMax =  -1.16928480489376E-03  1.28407751354216E-01
 cg2d: Sum(rhs),rhsMax =  -1.16979191097513E-03  1.28424653834413E-01
 cg2d: Sum(rhs),rhsMax =  -1.17029972097678E-03  1.28441514047172E-01
 cg2d: Sum(rhs),rhsMax =  -1.17080823478372E-03  1.28458331963050E-01
 cg2d: Sum(rhs),rhsMax =  -1.17131745158524E-03  1.28475107552708E-01
 cg2d: Sum(rhs),rhsMax =  -1.17182737103561E-03  1.28491840786911E-01
 cg2d: Sum(rhs),rhsMax =  -1.17233799257834E-03  1.28508531636527E-01
 cg2d: Sum(rhs),rhsMax =  -1.17284931581248E-03  1.28525180072525E-01
 cg2d: Sum(rhs),rhsMax =  -1.17336134057558E-03  1.28541786065975E-01
 cg2d: Sum(rhs),rhsMax =  -1.17387406615859E-03  1.28558349588057E-01
(PID.TID 0000.0001)      cg2d_init_res =   2.04347809941935E-03
(PID.TID 0000.0001)      cg2d_iters(min,last) =      -1      83
(PID.TID 0000.0001)      cg2d_last_res =   9.37205022715343E-08
(PID.TID 0000.0001) // =======================================================
(PID.TID 0000.0001) // Begin MONITOR dynamic field statistics
(PID.TID 0000.0001) // =======================================================
(PID.TID 0000.0001) %MON time_tsnumber                =                  4968
(PID.TID 0000.0001) %MON time_secondsf                =   5.9616000000000E+06
(PID.TID 0000.0001) %MON dynstat_eta_max              =   1.3178046005729E-01
(PID.TID 0000.0001) %MON dynstat_eta_min              =  -5.8113707475126E-02
(PID.TID 0000.0001) %MON dynstat_eta_mean             =   7.5459674370473E-07
(PID.TID 0000.0001) %MON dynstat_eta_sd               =   5.6379310744318E-02
(PID.TID 0000.0001) %MON dynstat_eta_del2             =   1.9187092466036E-05
(PID.TID 0000.0001) %MON dynstat_uvel_max             =   8.8451406691355E-02
(PID.TID 0000.0001) %MON dynstat_uvel_min             =  -4.3368240314974E-02
(PID.TID 0000.0001) %MON dynstat_uvel_mean            =  -1.1444163065649E-07
(PID.TID 0000.0001) %MON dynstat_uvel_sd              =   2.4550499394286E-02
(PID.TID 0000.0001) %MON dynstat_uvel_del2            =   4.3166353554191E-05
(PID.TID 0000.0001) %MON dynstat_vvel_max             =   8.2584675637184E-02
(PID.TID 0000.0001) %MON dynstat_vvel_min             =  -5.8922162515715E-02
(PID.TID 0000.0001) %MON dynstat_vvel_mean            =   2.1828427751444E-07
(PID.TID 0000.0001) %MON dynstat_vvel_sd              =   2.2503060465936E-02
(PID.TID 0000.0001) %MON dynstat_vvel_del2            =   4.7957847006833E-05
(PID.TID 0000.0001) %MON dynstat_wvel_max             =   2.1002179015777E-08
(PID.TID 0000.0001) %MON dynstat_wvel_min             =  -1.3705026599346E-08
(PID.TID 0000.0001) %MON dynstat_wvel_mean            =   3.6151075417163E-21
(PID.TID 0000.0001) %MON dynstat_wvel_sd              =   8.1625423281368E-09
(PID.TID 0000.0001) %MON dynstat_wvel_del2            =   4.1649480761613E-12
(PID.TID 0000.0001) %MON dynstat_theta_max            =   2.0000000000000E+01
(PID.TID 0000.0001) %MON dynstat_theta_min            =   2.0000000000000E+01
(PID.TID 0000.0001) %MON dynstat_theta_mean           =   2.0000000000000E+01
(PID.TID 0000.0001) %MON dynstat_theta_sd             =   3.8014036363165E-13
(PID.TID 0000.0001) %MON dynstat_theta_del2           =   0.0000000000000E+00
(PID.TID 0000.0001) %MON dynstat_salt_max             =   3.0000000000000E+01
(PID.TID 0000.0001) %MON dynstat_salt_min             =   3.0000000000000E+01
(PID.TID 0000.0001) %MON dynstat_salt_mean            =   2.9999999999999E+01
(PID.TID 0000.0001) %MON dynstat_salt_sd              =   5.5777604757167E-13
(PID.TID 0000.0001) %MON dynstat_salt_del2            =   0.0000000000000E+00
(PID.TID 0000.0001) %MON trAdv_CFL_u_max              =   5.3037533091582E-03
(PID.TID 0000.0001) %MON trAdv_CFL_v_max              =   4.9542529512396E-03
(PID.TID 0000.0001) %MON trAdv_CFL_w_max              =   5.5854010395726E-09
(PID.TID 0000.0001) %MON advcfl_uvel_max              =   5.3070844014813E-03
(PID.TID 0000.0001) %MON advcfl_vvel_max              =   4.9550805382310E-03
(PID.TID 0000.0001) %MON advcfl_wvel_max              =   1.0081045927573E-08
(PID.TID 0000.0001) %MON advcfl_W_hf_max              =   0.0000000000000E+00
(PID.TID 0000.0001) %MON pe_b_mean                    =   3.2588383460363E-06
(PID.TID 0000.0001) %MON ke_max                       =   3.9101300027732E-03
(PID.TID 0000.0001) %MON ke_mean                      =   5.4435983279505E-04
(PID.TID 0000.0001) %MON ke_vol                       =   6.8893493896486E+15
(PID.TID 0000.0001) %MON vort_r_min                   =  -9.1605623706124E-07
(PID.TID 0000.0001) %MON vort_r_max                   =   2.0514980179604E-06
(PID.TID 0000.0001) %MON vort_a_mean                  =   1.0600000000000E-04
(PID.TID 0000.0001) %MON vort_a_sd                    =   3.5387414650903E-06
(PID.TID 0000.0001) %MON vort_p_mean                  =   1.1652272308690E-04
(PID.TID 0000.0001) %MON vort_p_sd                    =   4.1766149881891E-05
(PID.TID 0000.0001) %MON surfExpan_theta_mean         =   7.2326302971406E-20
(PID.TID 0000.0001) %MON surfExpan_salt_mean          =   1.0847555939917E-19
(PID.TID 0000.0001) // =======================================================
(PID.TID 0000.0001) // End MONITOR dynamic field statistics
(PID.TID 0000.0001) // =======================================================
 cg2d: Sum(rhs),rhsMax =  -1.17438749190356E-03  1.28574870610054E-01
 cg2d: Sum(rhs),rhsMax =  -1.17490161805975E-03  1.28591349103337E-01
 cg2d: Sum(rhs),rhsMax =  -1.17541644349903E-03  1.28607785039400E-01
 cg2d: Sum(rhs),rhsMax =  -1.17593196818818E-03  1.28624178389827E-01
 cg2d: Sum(rhs),rhsMax =  -1.17644819187811E-03  1.28640529126314E-01
 cg2d: Sum(rhs),rhsMax =  -1.17696511432435E-03  1.28656837220660E-01
 cg2d: Sum(rhs),rhsMax =  -1.17748273480833E-03  1.28673102644757E-01
 cg2d: Sum(rhs),rhsMax =  -1.17800105281743E-03  1.28689325370608E-01
 cg2d: Sum(rhs),rhsMax =  -1.17852006874842E-03  1.28705505370326E-01
 cg2d: Sum(rhs),rhsMax =  -1.17903978210707E-03  1.28721642616118E-01
 cg2d: Sum(rhs),rhsMax =  -1.17956019240514E-03  1.28737737080299E-01
 cg2d: Sum(rhs),rhsMax =  -1.18008129990599E-03  1.28753788735286E-01
 cg2d: Sum(rhs),rhsMax =  -1.18060310349342E-03  1.28769797553608E-01
 cg2d: Sum(rhs),rhsMax =  -1.18112560352812E-03  1.28785763507883E-01
 cg2d: Sum(rhs),rhsMax =  -1.18164879946945E-03  1.28801686570845E-01
 cg2d: Sum(rhs),rhsMax =  -1.18217269137531E-03  1.28817566715332E-01
 cg2d: Sum(rhs),rhsMax =  -1.18269727881785E-03  1.28833403914283E-01
 cg2d: Sum(rhs),rhsMax =  -1.18322256188398E-03  1.28849198140736E-01
 cg2d: Sum(rhs),rhsMax =  -1.18374854017568E-03  1.28864949367846E-01
 cg2d: Sum(rhs),rhsMax =  -1.18427521374358E-03  1.28880657568863E-01
 cg2d: Sum(rhs),rhsMax =  -1.18480258233410E-03  1.28896322717150E-01
 cg2d: Sum(rhs),rhsMax =  -1.18533064551389E-03  1.28911944786164E-01
 cg2d: Sum(rhs),rhsMax =  -1.18585940348454E-03  1.28927523749473E-01
 cg2d: Sum(rhs),rhsMax =  -1.18638885610913E-03  1.28943059580754E-01
 cg2d: Sum(rhs),rhsMax =  -1.18691900344768E-03  1.28958552253775E-01
 cg2d: Sum(rhs),rhsMax =  -1.18744984480847E-03  1.28974001742429E-01
 cg2d: Sum(rhs),rhsMax =  -1.18798138063790E-03  1.28989408020697E-01
 cg2d: Sum(rhs),rhsMax =  -1.18851361050215E-03  1.29004771062677E-01
 cg2d: Sum(rhs),rhsMax =  -1.18904653466216E-03  1.29020090842559E-01
 cg2d: Sum(rhs),rhsMax =  -1.18958015271234E-03  1.29035367334654E-01
 cg2d: Sum(rhs),rhsMax =  -1.19011446516230E-03  1.29050600513368E-01
 cg2d: Sum(rhs),rhsMax =  -1.19064947178758E-03  1.29065790353217E-01
 cg2d: Sum(rhs),rhsMax =  -1.19118517214269E-03  1.29080936828816E-01
 cg2d: Sum(rhs),rhsMax =  -1.19172156674377E-03  1.29096039914899E-01
 cg2d: Sum(rhs),rhsMax =  -1.19225865498369E-03  1.29111099586290E-01
 cg2d: Sum(rhs),rhsMax =  -1.19279643723766E-03  1.29126115817930E-01
 cg2d: Sum(rhs),rhsMax =  -1.19333491381976E-03  1.29141088584860E-01
 cg2d: Sum(rhs),rhsMax =  -1.19387408451565E-03  1.29156017862233E-01
 cg2d: Sum(rhs),rhsMax =  -1.19441394925597E-03  1.29170903625303E-01
 cg2d: Sum(rhs),rhsMax =  -1.19495450777341E-03  1.29185745849429E-01
 cg2d: Sum(rhs),rhsMax =  -1.19549576068670E-03  1.29200544510081E-01
 cg2d: Sum(rhs),rhsMax =  -1.19603770801377E-03  1.29215299582830E-01
 cg2d: Sum(rhs),rhsMax =  -1.19658034938981E-03  1.29230011043363E-01
 cg2d: Sum(rhs),rhsMax =  -1.19712368514586E-03  1.29244678867460E-01
 cg2d: Sum(rhs),rhsMax =  -1.19766771563309E-03  1.29259303031015E-01
 cg2d: Sum(rhs),rhsMax =  -1.19821244054548E-03  1.29273883510032E-01
 cg2d: Sum(rhs),rhsMax =  -1.19875786016124E-03  1.29288420280614E-01
 cg2d: Sum(rhs),rhsMax =  -1.19930397436150E-03  1.29302913318973E-01
 cg2d: Sum(rhs),rhsMax =  -1.19985078365364E-03  1.29317362601436E-01
 cg2d: Sum(rhs),rhsMax =  -1.20039828775271E-03  1.29331768104422E-01
 cg2d: Sum(rhs),rhsMax =  -1.20094648695153E-03  1.29346129804469E-01
 cg2d: Sum(rhs),rhsMax =  -1.20149538158084E-03  1.29360447678219E-01
 cg2d: Sum(rhs),rhsMax =  -1.20204497148177E-03  1.29374721702417E-01
 cg2d: Sum(rhs),rhsMax =  -1.20259525718640E-03  1.29388951853919E-01
 cg2d: Sum(rhs),rhsMax =  -1.20314623838276E-03  1.29403138109691E-01
 cg2d: Sum(rhs),rhsMax =  -1.20369791562748E-03  1.29417280446800E-01
 cg2d: Sum(rhs),rhsMax =  -1.20425028891115E-03  1.29431378842422E-01
 cg2d: Sum(rhs),rhsMax =  -1.20480335816038E-03  1.29445433273843E-01
 cg2d: Sum(rhs),rhsMax =  -1.20535712403128E-03  1.29459443718457E-01
 cg2d: Sum(rhs),rhsMax =  -1.20591158628605E-03  1.29473410153761E-01
 cg2d: Sum(rhs),rhsMax =  -1.20646674555798E-03  1.29487332557370E-01
 cg2d: Sum(rhs),rhsMax =  -1.20702260191303E-03  1.29501210906992E-01
 cg2d: Sum(rhs),rhsMax =  -1.20757915520783E-03  1.29515045180450E-01
 cg2d: Sum(rhs),rhsMax =  -1.20813640606652E-03  1.29528835355677E-01
 cg2d: Sum(rhs),rhsMax =  -1.20869435437116E-03  1.29542581410715E-01
 cg2d: Sum(rhs),rhsMax =  -1.20925300029413E-03  1.29556283323711E-01
 cg2d: Sum(rhs),rhsMax =  -1.20981234468683E-03  1.29569941072917E-01
 cg2d: Sum(rhs),rhsMax =  -1.21037238718771E-03  1.29583554636698E-01
 cg2d: Sum(rhs),rhsMax =  -1.21093312812396E-03  1.29597123993529E-01
 cg2d: Sum(rhs),rhsMax =  -1.21149456763172E-03  1.29610649121985E-01
 cg2d: Sum(rhs),rhsMax =  -1.21205670599591E-03  1.29624130000759E-01
 cg2d: Sum(rhs),rhsMax =  -1.21261954395771E-03  1.29637566608649E-01
(PID.TID 0000.0001)      cg2d_init_res =   2.01756971767715E-03
(PID.TID 0000.0001)      cg2d_iters(min,last) =      -1      83
(PID.TID 0000.0001)      cg2d_last_res =   9.50925870266009E-08
(PID.TID 0000.0001) // =======================================================
(PID.TID 0000.0001) // Begin MONITOR dynamic field statistics
(PID.TID 0000.0001) // =======================================================
(PID.TID 0000.0001) %MON time_tsnumber                =                  5040
(PID.TID 0000.0001) %MON time_secondsf                =   6.0480000000000E+06
(PID.TID 0000.0001) %MON dynstat_eta_max              =   1.3328755204667E-01
(PID.TID 0000.0001) %MON dynstat_eta_min              =  -5.8540645298570E-02
(PID.TID 0000.0001) %MON dynstat_eta_mean             =   7.8604876936989E-07
(PID.TID 0000.0001) %MON dynstat_eta_sd               =   5.6999018582199E-02
(PID.TID 0000.0001) %MON dynstat_eta_del2             =   1.9349078207433E-05
(PID.TID 0000.0001) %MON dynstat_uvel_max             =   8.9531060120215E-02
(PID.TID 0000.0001) %MON dynstat_uvel_min             =  -4.4286395026959E-02
(PID.TID 0000.0001) %MON dynstat_uvel_mean            =  -1.1081712273714E-07
(PID.TID 0000.0001) %MON dynstat_uvel_sd              =   2.4806212825789E-02
(PID.TID 0000.0001) %MON dynstat_uvel_del2            =   4.3698858681586E-05
(PID.TID 0000.0001) %MON dynstat_vvel_max             =   8.3504054129110E-02
(PID.TID 0000.0001) %MON dynstat_vvel_min             =  -5.9675374111524E-02
(PID.TID 0000.0001) %MON dynstat_vvel_mean            =   2.2021636398978E-07
(PID.TID 0000.0001) %MON dynstat_vvel_sd              =   2.2713391351842E-02
(PID.TID 0000.0001) %MON dynstat_vvel_del2            =   4.8108999499777E-05
(PID.TID 0000.0001) %MON dynstat_wvel_max             =   2.0858285581926E-08
(PID.TID 0000.0001) %MON dynstat_wvel_min             =  -1.3744254178600E-08
(PID.TID 0000.0001) %MON dynstat_wvel_mean            =  -2.1002728721618E-21
(PID.TID 0000.0001) %MON dynstat_wvel_sd              =   8.0910435851172E-09
(PID.TID 0000.0001) %MON dynstat_wvel_del2            =   4.1458474899593E-12
(PID.TID 0000.0001) %MON dynstat_theta_max            =   2.0000000000000E+01
(PID.TID 0000.0001) %MON dynstat_theta_min            =   2.0000000000000E+01
(PID.TID 0000.0001) %MON dynstat_theta_mean           =   2.0000000000000E+01
(PID.TID 0000.0001) %MON dynstat_theta_sd             =   3.8014036363165E-13
(PID.TID 0000.0001) %MON dynstat_theta_del2           =   0.0000000000000E+00
(PID.TID 0000.0001) %MON dynstat_salt_max             =   3.0000000000000E+01
(PID.TID 0000.0001) %MON dynstat_salt_min             =   3.0000000000000E+01
(PID.TID 0000.0001) %MON dynstat_salt_mean            =   2.9999999999999E+01
(PID.TID 0000.0001) %MON dynstat_salt_sd              =   5.5777604757167E-13
(PID.TID 0000.0001) %MON dynstat_salt_del2            =   0.0000000000000E+00
(PID.TID 0000.0001) %MON trAdv_CFL_u_max              =   5.3684885590368E-03
(PID.TID 0000.0001) %MON trAdv_CFL_v_max              =   5.0095382268588E-03
(PID.TID 0000.0001) %MON trAdv_CFL_w_max              =   5.5394212037761E-09
(PID.TID 0000.0001) %MON advcfl_uvel_max              =   5.3718636072129E-03
(PID.TID 0000.0001) %MON advcfl_vvel_max              =   5.0102432477466E-03
(PID.TID 0000.0001) %MON advcfl_wvel_max              =   1.0011977079324E-08
(PID.TID 0000.0001) %MON advcfl_W_hf_max              =   0.0000000000000E+00
(PID.TID 0000.0001) %MON pe_b_mean                    =   3.3308728112008E-06
(PID.TID 0000.0001) %MON ke_max                       =   4.0035946327600E-03
(PID.TID 0000.0001) %MON ke_mean                      =   5.5522214344273E-04
(PID.TID 0000.0001) %MON ke_vol                       =   6.8893493896486E+15
(PID.TID 0000.0001) %MON vort_r_min                   =  -9.2594245009269E-07
(PID.TID 0000.0001) %MON vort_r_max                   =   2.0624170920278E-06
(PID.TID 0000.0001) %MON vort_a_mean                  =   1.0600000000000E-04
(PID.TID 0000.0001) %MON vort_a_sd                    =   3.5390721358384E-06
(PID.TID 0000.0001) %MON vort_p_mean                  =   1.1652272308690E-04
(PID.TID 0000.0001) %MON vort_p_sd                    =   4.1766750303092E-05
(PID.TID 0000.0001) %MON surfExpan_theta_mean         =  -4.1982654389964E-20
(PID.TID 0000.0001) %MON surfExpan_salt_mean          =  -6.2969244633374E-20
(PID.TID 0000.0001) // =======================================================
(PID.TID 0000.0001) // End MONITOR dynamic field statistics
(PID.TID 0000.0001) // =======================================================
 cg2d: Sum(rhs),rhsMax =  -1.21318308118934E-03  1.29650958924557E-01
 cg2d: Sum(rhs),rhsMax =  -1.21374731820110E-03  1.29664306927499E-01
 cg2d: Sum(rhs),rhsMax =  -1.21431225475084E-03  1.29677610596603E-01
 cg2d: Sum(rhs),rhsMax =  -1.21487789205421E-03  1.29690869911096E-01
 cg2d: Sum(rhs),rhsMax =  -1.21544422973881E-03  1.29704084850317E-01
 cg2d: Sum(rhs),rhsMax =  -1.21601126806967E-03  1.29717255393723E-01
 cg2d: Sum(rhs),rhsMax =  -1.21657900712919E-03  1.29730381520866E-01
 cg2d: Sum(rhs),rhsMax =  -1.21714744731093E-03  1.29743463211419E-01
 cg2d: Sum(rhs),rhsMax =  -1.21771658940618E-03  1.29756500445159E-01
 cg2d: Sum(rhs),rhsMax =  -1.21828643319247E-03  1.29769493201969E-01
 cg2d: Sum(rhs),rhsMax =  -1.21885697892883E-03  1.29782441461845E-01
 cg2d: Sum(rhs),rhsMax =  -1.21942822697466E-03  1.29795345204896E-01
 cg2d: Sum(rhs),rhsMax =  -1.22000017754376E-03  1.29808204411331E-01
 cg2d: Sum(rhs),rhsMax =  -1.22057283096937E-03  1.29821019061480E-01
 cg2d: Sum(rhs),rhsMax =  -1.22114618763515E-03  1.29833789135775E-01
 cg2d: Sum(rhs),rhsMax =  -1.22172024748277E-03  1.29846514614757E-01
 cg2d: Sum(rhs),rhsMax =  -1.22229501150173E-03  1.29859195479078E-01
 cg2d: Sum(rhs),rhsMax =  -1.22287047909259E-03  1.29871831709507E-01
 cg2d: Sum(rhs),rhsMax =  -1.22344665092778E-03  1.29884423286910E-01
 cg2d: Sum(rhs),rhsMax =  -1.22402352728106E-03  1.29896970192275E-01
 cg2d: Sum(rhs),rhsMax =  -1.22460110825558E-03  1.29909472406689E-01
 cg2d: Sum(rhs),rhsMax =  -1.22517939458898E-03  1.29921929911358E-01
 cg2d: Sum(rhs),rhsMax =  -1.22575838621649E-03  1.29934342687599E-01
 cg2d: Sum(rhs),rhsMax =  -1.22633808371412E-03  1.29946710716828E-01
 cg2d: Sum(rhs),rhsMax =  -1.22691848698227E-03  1.29959033980581E-01
 cg2d: Sum(rhs),rhsMax =  -1.22749959636327E-03  1.29971312460502E-01
 cg2d: Sum(rhs),rhsMax =  -1.22808141234097E-03  1.29983546138345E-01
 cg2d: Sum(rhs),rhsMax =  -1.22866393503244E-03  1.29995734995977E-01
 cg2d: Sum(rhs),rhsMax =  -1.22924716467419E-03  1.30007879015369E-01
 cg2d: Sum(rhs),rhsMax =  -1.22983110185236E-03  1.30019978178608E-01
 cg2d: Sum(rhs),rhsMax =  -1.23041574647070E-03  1.30032032467895E-01
 cg2d: Sum(rhs),rhsMax =  -1.23100109880080E-03  1.30044041865531E-01
 cg2d: Sum(rhs),rhsMax =  -1.23158715958034E-03  1.30056006353939E-01
 cg2d: Sum(rhs),rhsMax =  -1.23217392864951E-03  1.30067925915646E-01
 cg2d: Sum(rhs),rhsMax =  -1.23276140618713E-03  1.30079800533292E-01
 cg2d: Sum(rhs),rhsMax =  -1.23334959270806E-03  1.30091630189626E-01
 cg2d: Sum(rhs),rhsMax =  -1.23393848855533E-03  1.30103414867514E-01
 cg2d: Sum(rhs),rhsMax =  -1.23452809377093E-03  1.30115154549930E-01
 cg2d: Sum(rhs),rhsMax =  -1.23511840874021E-03  1.30126849219956E-01
 cg2d: Sum(rhs),rhsMax =  -1.23570943389921E-03  1.30138498860788E-01
 cg2d: Sum(rhs),rhsMax =  -1.23630116917011E-03  1.30150103455733E-01
 cg2d: Sum(rhs),rhsMax =  -1.23689361450743E-03  1.30161662988212E-01
 cg2d: Sum(rhs),rhsMax =  -1.23748677095627E-03  1.30173177441755E-01
 cg2d: Sum(rhs),rhsMax =  -1.23808063847210E-03  1.30184646800005E-01
 cg2d: Sum(rhs),rhsMax =  -1.23867521718489E-03  1.30196071046710E-01
 cg2d: Sum(rhs),rhsMax =  -1.23927050735875E-03  1.30207450165743E-01
 cg2d: Sum(rhs),rhsMax =  -1.23986650943371E-03  1.30218784141075E-01
 cg2d: Sum(rhs),rhsMax =  -1.24046322319699E-03  1.30230072956797E-01
 cg2d: Sum(rhs),rhsMax =  -1.24106064926068E-03  1.30241316597110E-01
 cg2d: Sum(rhs),rhsMax =  -1.24165878791707E-03  1.30252515046328E-01
 cg2d: Sum(rhs),rhsMax =  -1.24225763893915E-03  1.30263668288877E-01
 cg2d: Sum(rhs),rhsMax =  -1.24285720301331E-03  1.30274776309289E-01
 cg2d: Sum(rhs),rhsMax =  -1.24345748026514E-03  1.30285839092218E-01
 cg2d: Sum(rhs),rhsMax =  -1.24405847085898E-03  1.30296856622423E-01
 cg2d: Sum(rhs),rhsMax =  -1.24466017494835E-03  1.30307828884780E-01
 cg2d: Sum(rhs),rhsMax =  -1.24526259244585E-03  1.30318755864272E-01
 cg2d: Sum(rhs),rhsMax =  -1.24586572384803E-03  1.30329637546004E-01
 cg2d: Sum(rhs),rhsMax =  -1.24646956966303E-03  1.30340473915177E-01
 cg2d: Sum(rhs),rhsMax =  -1.24707412931270E-03  1.30351264957125E-01
 cg2d: Sum(rhs),rhsMax =  -1.24767940404872E-03  1.30362010657276E-01
 cg2d: Sum(rhs),rhsMax =  -1.24828539309562E-03  1.30372711001188E-01
 cg2d: Sum(rhs),rhsMax =  -1.24889209702848E-03  1.30383365974515E-01
 cg2d: Sum(rhs),rhsMax =  -1.24943091460944E-03  1.30401134966264E-01
 cg2d: Sum(rhs),rhsMax =  -1.24990805988234E-03  1.30425363207162E-01
 cg2d: Sum(rhs),rhsMax =  -1.25038540677345E-03  1.30449591441294E-01
 cg2d: Sum(rhs),rhsMax =  -1.25086295385249E-03  1.30473819652842E-01
 cg2d: Sum(rhs),rhsMax =  -1.25134070129553E-03  1.30498047826001E-01
 cg2d: Sum(rhs),rhsMax =  -1.25181864891514E-03  1.30522275944946E-01
 cg2d: Sum(rhs),rhsMax =  -1.25229679567815E-03  1.30546503993850E-01
 cg2d: Sum(rhs),rhsMax =  -1.25277514149100E-03  1.30570731956871E-01
 cg2d: Sum(rhs),rhsMax =  -1.25325368571610E-03  1.30594959818172E-01
 cg2d: Sum(rhs),rhsMax =  -1.25373242833413E-03  1.30619187561897E-01
(PID.TID 0000.0001)      cg2d_init_res =   1.99288482119976E-03
(PID.TID 0000.0001)      cg2d_iters(min,last) =      -1      83
(PID.TID 0000.0001)      cg2d_last_res =   9.67677220386691E-08
(PID.TID 0000.0001) // =======================================================
(PID.TID 0000.0001) // Begin MONITOR dynamic field statistics
(PID.TID 0000.0001) // =======================================================
(PID.TID 0000.0001) %MON time_tsnumber                =                  5112
(PID.TID 0000.0001) %MON time_secondsf                =   6.1344000000000E+06
(PID.TID 0000.0001) %MON dynstat_eta_max              =   1.3481608002075E-01
(PID.TID 0000.0001) %MON dynstat_eta_min              =  -5.8956609877260E-02
(PID.TID 0000.0001) %MON dynstat_eta_mean             =   8.1885248560568E-07
(PID.TID 0000.0001) %MON dynstat_eta_sd               =   5.7612817001314E-02
(PID.TID 0000.0001) %MON dynstat_eta_del2             =   1.9509048695175E-05
(PID.TID 0000.0001) %MON dynstat_uvel_max             =   9.0626375712043E-02
(PID.TID 0000.0001) %MON dynstat_uvel_min             =  -4.5195110548163E-02
(PID.TID 0000.0001) %MON dynstat_uvel_mean            =  -1.0600670582490E-07
(PID.TID 0000.0001) %MON dynstat_uvel_sd              =   2.5062403748367E-02
(PID.TID 0000.0001) %MON dynstat_uvel_del2            =   4.4239195797750E-05
(PID.TID 0000.0001) %MON dynstat_vvel_max             =   8.4271669455566E-02
(PID.TID 0000.0001) %MON dynstat_vvel_min             =  -6.0408233529079E-02
(PID.TID 0000.0001) %MON dynstat_vvel_mean            =   2.2212655061975E-07
(PID.TID 0000.0001) %MON dynstat_vvel_sd              =   2.2919228813361E-02
(PID.TID 0000.0001) %MON dynstat_vvel_del2            =   4.8232882899474E-05
(PID.TID 0000.0001) %MON dynstat_wvel_max             =   2.0728581103031E-08
(PID.TID 0000.0001) %MON dynstat_wvel_min             =  -1.3748409015825E-08
(PID.TID 0000.0001) %MON dynstat_wvel_mean            =  -3.6740150082753E-21
(PID.TID 0000.0001) %MON dynstat_wvel_sd              =   8.0229380723701E-09
(PID.TID 0000.0001) %MON dynstat_wvel_del2            =   4.1276955455898E-12
(PID.TID 0000.0001) %MON dynstat_theta_max            =   2.0000000000000E+01
(PID.TID 0000.0001) %MON dynstat_theta_min            =   2.0000000000000E+01
(PID.TID 0000.0001) %MON dynstat_theta_mean           =   2.0000000000000E+01
(PID.TID 0000.0001) %MON dynstat_theta_sd             =   3.8014036363165E-13
(PID.TID 0000.0001) %MON dynstat_theta_del2           =   0.0000000000000E+00
(PID.TID 0000.0001) %MON dynstat_salt_max             =   3.0000000000000E+01
(PID.TID 0000.0001) %MON dynstat_salt_min             =   3.0000000000000E+01
(PID.TID 0000.0001) %MON dynstat_salt_mean            =   2.9999999999999E+01
(PID.TID 0000.0001) %MON dynstat_salt_sd              =   5.5777604757167E-13
(PID.TID 0000.0001) %MON dynstat_salt_del2            =   0.0000000000000E+00
(PID.TID 0000.0001) %MON trAdv_CFL_u_max              =   5.4341653985086E-03
(PID.TID 0000.0001) %MON trAdv_CFL_v_max              =   5.0557250870295E-03
(PID.TID 0000.0001) %MON trAdv_CFL_w_max              =   5.5017595942457E-09
(PID.TID 0000.0001) %MON advcfl_uvel_max              =   5.4375825427226E-03
(PID.TID 0000.0001) %MON advcfl_vvel_max              =   5.0563001673340E-03
(PID.TID 0000.0001) %MON advcfl_wvel_max              =   9.9497189294547E-09
(PID.TID 0000.0001) %MON advcfl_W_hf_max              =   0.0000000000000E+00
(PID.TID 0000.0001) %MON pe_b_mean                    =   3.4029965990845E-06
(PID.TID 0000.0001) %MON ke_max                       =   4.1023095820257E-03
(PID.TID 0000.0001) %MON ke_mean                      =   5.6610271155515E-04
(PID.TID 0000.0001) %MON ke_vol                       =   6.8893493896486E+15
(PID.TID 0000.0001) %MON vort_r_min                   =  -9.3593347204692E-07
(PID.TID 0000.0001) %MON vort_r_max                   =   2.0702091260185E-06
(PID.TID 0000.0001) %MON vort_a_mean                  =   1.0600000000000E-04
(PID.TID 0000.0001) %MON vort_a_sd                    =   3.5394004036888E-06
(PID.TID 0000.0001) %MON vort_p_mean                  =   1.1652272308690E-04
(PID.TID 0000.0001) %MON vort_p_sd                    =   4.1767329876320E-05
(PID.TID 0000.0001) %MON surfExpan_theta_mean         =  -7.3352652347264E-20
(PID.TID 0000.0001) %MON surfExpan_salt_mean          =  -1.1001918388666E-19
(PID.TID 0000.0001) // =======================================================
(PID.TID 0000.0001) // End MONITOR dynamic field statistics
(PID.TID 0000.0001) // =======================================================
 cg2d: Sum(rhs),rhsMax =  -1.25421136841668E-03  1.30643415172189E-01
 cg2d: Sum(rhs),rhsMax =  -1.25469050593340E-03  1.30667642633186E-01
 cg2d: Sum(rhs),rhsMax =  -1.25516984001124E-03  1.30691869929012E-01
 cg2d: Sum(rhs),rhsMax =  -1.25564937073532E-03  1.30716097043786E-01
 cg2d: Sum(rhs),rhsMax =  -1.25612909697375E-03  1.30740323961620E-01
 cg2d: Sum(rhs),rhsMax =  -1.25660901864783E-03  1.30764550666624E-01
 cg2d: Sum(rhs),rhsMax =  -1.25708913536920E-03  1.30788777142895E-01
 cg2d: Sum(rhs),rhsMax =  -1.25756944625286E-03  1.30813003374523E-01
 cg2d: Sum(rhs),rhsMax =  -1.25804995118719E-03  1.30837229345598E-01
 cg2d: Sum(rhs),rhsMax =  -1.25853064952144E-03  1.30861455040190E-01
 cg2d: Sum(rhs),rhsMax =  -1.25901154077896E-03  1.30885680442379E-01
 cg2d: Sum(rhs),rhsMax =  -1.25949262416909E-03  1.30909905536222E-01
 cg2d: Sum(rhs),rhsMax =  -1.25997389931363E-03  1.30934130305779E-01
 cg2d: Sum(rhs),rhsMax =  -1.26045536625446E-03  1.30958354735108E-01
 cg2d: Sum(rhs),rhsMax =  -1.26093702389189E-03  1.30982578808242E-01
 cg2d: Sum(rhs),rhsMax =  -1.26141887161951E-03  1.31006802509225E-01
 cg2d: Sum(rhs),rhsMax =  -1.26190090947686E-03  1.31031025822087E-01
 cg2d: Sum(rhs),rhsMax =  -1.26238313578987E-03  1.31055248730854E-01
 cg2d: Sum(rhs),rhsMax =  -1.26286555094943E-03  1.31079471219539E-01
 cg2d: Sum(rhs),rhsMax =  -1.26334815436241E-03  1.31103693272159E-01
 cg2d: Sum(rhs),rhsMax =  -1.26383094504636E-03  1.31127914872712E-01
 cg2d: Sum(rhs),rhsMax =  -1.26431392224782E-03  1.31152136005204E-01
 cg2d: Sum(rhs),rhsMax =  -1.26479708582945E-03  1.31176356653625E-01
 cg2d: Sum(rhs),rhsMax =  -1.26528043488931E-03  1.31200576801961E-01
 cg2d: Sum(rhs),rhsMax =  -1.26576396930363E-03  1.31224796434192E-01
 cg2d: Sum(rhs),rhsMax =  -1.26624768769137E-03  1.31249015534292E-01
 cg2d: Sum(rhs),rhsMax =  -1.26673159008038E-03  1.31273234086224E-01
 cg2d: Sum(rhs),rhsMax =  -1.26721567557592E-03  1.31297452073954E-01
 cg2d: Sum(rhs),rhsMax =  -1.26769994348328E-03  1.31321669481437E-01
 cg2d: Sum(rhs),rhsMax =  -1.26818439315211E-03  1.31345886292622E-01
 cg2d: Sum(rhs),rhsMax =  -1.26866902370033E-03  1.31370102491451E-01
 cg2d: Sum(rhs),rhsMax =  -1.26915383504856E-03  1.31394318061864E-01
 cg2d: Sum(rhs),rhsMax =  -1.26963882597333E-03  1.31418532987789E-01
 cg2d: Sum(rhs),rhsMax =  -1.27012399613972E-03  1.31442747253148E-01
 cg2d: Sum(rhs),rhsMax =  -1.27060934463242E-03  1.31466960841871E-01
 cg2d: Sum(rhs),rhsMax =  -1.27109487076053E-03  1.31491173737866E-01
 cg2d: Sum(rhs),rhsMax =  -1.27158057406483E-03  1.31515385925040E-01
 cg2d: Sum(rhs),rhsMax =  -1.27206645354352E-03  1.31539597387297E-01
 cg2d: Sum(rhs),rhsMax =  -1.27255250835159E-03  1.31563808108535E-01
 cg2d: Sum(rhs),rhsMax =  -1.27303873816862E-03  1.31588018072647E-01
 cg2d: Sum(rhs),rhsMax =  -1.27352514188788E-03  1.31612227263513E-01
 cg2d: Sum(rhs),rhsMax =  -1.27401171902363E-03  1.31636435665016E-01
 cg2d: Sum(rhs),rhsMax =  -1.27449846851672E-03  1.31660643261034E-01
 cg2d: Sum(rhs),rhsMax =  -1.27498539007290E-03  1.31684850035429E-01
 cg2d: Sum(rhs),rhsMax =  -1.27547248201809E-03  1.31709055972071E-01
 cg2d: Sum(rhs),rhsMax =  -1.27595974455720E-03  1.31733261054819E-01
 cg2d: Sum(rhs),rhsMax =  -1.27644717598140E-03  1.31757465267523E-01
 cg2d: Sum(rhs),rhsMax =  -1.27693477625545E-03  1.31781668594033E-01
 cg2d: Sum(rhs),rhsMax =  -1.27742254417138E-03  1.31805871018187E-01
 cg2d: Sum(rhs),rhsMax =  -1.27791047910210E-03  1.31830072523832E-01
 cg2d: Sum(rhs),rhsMax =  -1.27839858020996E-03  1.31854273094794E-01
 cg2d: Sum(rhs),rhsMax =  -1.27888684596029E-03  1.31878472714900E-01
 cg2d: Sum(rhs),rhsMax =  -1.27937527634878E-03  1.31902671367977E-01
 cg2d: Sum(rhs),rhsMax =  -1.27986387042025E-03  1.31926869037835E-01
 cg2d: Sum(rhs),rhsMax =  -1.28035262671814E-03  1.31951065708295E-01
 cg2d: Sum(rhs),rhsMax =  -1.28084154482800E-03  1.31975261363160E-01
 cg2d: Sum(rhs),rhsMax =  -1.28133062397157E-03  1.31999455986232E-01
 cg2d: Sum(rhs),rhsMax =  -1.28181986279935E-03  1.32023649561311E-01
 cg2d: Sum(rhs),rhsMax =  -1.28230926084564E-03  1.32047842072188E-01
 cg2d: Sum(rhs),rhsMax =  -1.28279881665328E-03  1.32072033502655E-01
 cg2d: Sum(rhs),rhsMax =  -1.28328852984348E-03  1.32096223836492E-01
 cg2d: Sum(rhs),rhsMax =  -1.28377839910425E-03  1.32120413057480E-01
 cg2d: Sum(rhs),rhsMax =  -1.28426842354709E-03  1.32144601149392E-01
 cg2d: Sum(rhs),rhsMax =  -1.28475860207155E-03  1.32168788096000E-01
 cg2d: Sum(rhs),rhsMax =  -1.28524893412879E-03  1.32192973881066E-01
 cg2d: Sum(rhs),rhsMax =  -1.28573941870436E-03  1.32217158488354E-01
 cg2d: Sum(rhs),rhsMax =  -1.28623005435614E-03  1.32241341901621E-01
 cg2d: Sum(rhs),rhsMax =  -1.28672084056322E-03  1.32265524104617E-01
 cg2d: Sum(rhs),rhsMax =  -1.28721177578027E-03  1.32289705081088E-01
 cg2d: Sum(rhs),rhsMax =  -1.28770285962113E-03  1.32313884814781E-01
 cg2d: Sum(rhs),rhsMax =  -1.28819409072525E-03  1.32338063289433E-01
 cg2d: Sum(rhs),rhsMax =  -1.28868546832534E-03  1.32362240488782E-01
(PID.TID 0000.0001)      cg2d_init_res =   1.95648667292779E-03
(PID.TID 0000.0001)      cg2d_iters(min,last) =      -1      83
(PID.TID 0000.0001)      cg2d_last_res =   9.78654381912593E-08
(PID.TID 0000.0001) // =======================================================
(PID.TID 0000.0001) // Begin MONITOR dynamic field statistics
(PID.TID 0000.0001) // =======================================================
(PID.TID 0000.0001) %MON time_tsnumber                =                  5184
(PID.TID 0000.0001) %MON time_secondsf                =   6.2208000000000E+06
(PID.TID 0000.0001) %MON dynstat_eta_max              =   1.3633009446287E-01
(PID.TID 0000.0001) %MON dynstat_eta_min              =  -5.9361298786085E-02
(PID.TID 0000.0001) %MON dynstat_eta_mean             =   8.5291035223573E-07
(PID.TID 0000.0001) %MON dynstat_eta_sd               =   5.8220970476496E-02
(PID.TID 0000.0001) %MON dynstat_eta_del2             =   1.9667278477828E-05
(PID.TID 0000.0001) %MON dynstat_uvel_max             =   9.1734429484653E-02
(PID.TID 0000.0001) %MON dynstat_uvel_min             =  -4.6088582900221E-02
(PID.TID 0000.0001) %MON dynstat_uvel_mean            =  -1.0018996496615E-07
(PID.TID 0000.0001) %MON dynstat_uvel_sd              =   2.5318739642658E-02
(PID.TID 0000.0001) %MON dynstat_uvel_del2            =   4.4786922684591E-05
(PID.TID 0000.0001) %MON dynstat_vvel_max             =   8.5116871797274E-02
(PID.TID 0000.0001) %MON dynstat_vvel_min             =  -6.1120655097529E-02
(PID.TID 0000.0001) %MON dynstat_vvel_mean            =   2.2392424504314E-07
(PID.TID 0000.0001) %MON dynstat_vvel_sd              =   2.3120777313707E-02
(PID.TID 0000.0001) %MON dynstat_vvel_del2            =   4.8329827592423E-05
(PID.TID 0000.0001) %MON dynstat_wvel_max             =   2.0601379165309E-08
(PID.TID 0000.0001) %MON dynstat_wvel_min             =  -1.3817474996904E-08
(PID.TID 0000.0001) %MON dynstat_wvel_mean            =  -9.1411069054933E-21
(PID.TID 0000.0001) %MON dynstat_wvel_sd              =   7.9585468150344E-09
(PID.TID 0000.0001) %MON dynstat_wvel_del2            =   4.1103324107458E-12
(PID.TID 0000.0001) %MON dynstat_theta_max            =   2.0000000000000E+01
(PID.TID 0000.0001) %MON dynstat_theta_min            =   2.0000000000000E+01
(PID.TID 0000.0001) %MON dynstat_theta_mean           =   2.0000000000000E+01
(PID.TID 0000.0001) %MON dynstat_theta_sd             =   3.8014036363165E-13
(PID.TID 0000.0001) %MON dynstat_theta_del2           =   0.0000000000000E+00
(PID.TID 0000.0001) %MON dynstat_salt_max             =   3.0000000000000E+01
(PID.TID 0000.0001) %MON dynstat_salt_min             =   3.0000000000000E+01
(PID.TID 0000.0001) %MON dynstat_salt_mean            =   2.9999999999999E+01
(PID.TID 0000.0001) %MON dynstat_salt_sd              =   5.5777604757167E-13
(PID.TID 0000.0001) %MON dynstat_salt_del2            =   0.0000000000000E+00
(PID.TID 0000.0001) %MON trAdv_CFL_u_max              =   5.5006087472895E-03
(PID.TID 0000.0001) %MON trAdv_CFL_v_max              =   5.1063631652634E-03
(PID.TID 0000.0001) %MON trAdv_CFL_w_max              =   5.4678999915182E-09
(PID.TID 0000.0001) %MON advcfl_uvel_max              =   5.5040657690792E-03
(PID.TID 0000.0001) %MON advcfl_vvel_max              =   5.1070123078365E-03
(PID.TID 0000.0001) %MON advcfl_wvel_max              =   9.8886619993486E-09
(PID.TID 0000.0001) %MON advcfl_W_hf_max              =   0.0000000000000E+00
(PID.TID 0000.0001) %MON pe_b_mean                    =   3.4752189703676E-06
(PID.TID 0000.0001) %MON ke_max                       =   4.2032500554848E-03
(PID.TID 0000.0001) %MON ke_mean                      =   5.7699554983543E-04
(PID.TID 0000.0001) %MON ke_vol                       =   6.8893493896486E+15
(PID.TID 0000.0001) %MON vort_r_min                   =  -9.4544287608646E-07
(PID.TID 0000.0001) %MON vort_r_max                   =   2.0745824826320E-06
(PID.TID 0000.0001) %MON vort_a_mean                  =   1.0600000000000E-04
(PID.TID 0000.0001) %MON vort_a_sd                    =   3.5397261323844E-06
(PID.TID 0000.0001) %MON vort_p_mean                  =   1.1652272308690E-04
(PID.TID 0000.0001) %MON vort_p_sd                    =   4.1767888800025E-05
(PID.TID 0000.0001) %MON surfExpan_theta_mean         =  -1.8279832462535E-19
(PID.TID 0000.0001) %MON surfExpan_salt_mean          =  -2.7419369984393E-19
(PID.TID 0000.0001) // =======================================================
(PID.TID 0000.0001) // End MONITOR dynamic field statistics
(PID.TID 0000.0001) // =======================================================
 cg2d: Sum(rhs),rhsMax =  -1.28917699087628E-03  1.32386416396556E-01
 cg2d: Sum(rhs),rhsMax =  -1.28966865762097E-03  1.32410590996483E-01
 cg2d: Sum(rhs),rhsMax =  -1.29016046730014E-03  1.32434764272283E-01
 cg2d: Sum(rhs),rhsMax =  -1.29065241892892E-03  1.32458936207676E-01
 cg2d: Sum(rhs),rhsMax =  -1.29114451204189E-03  1.32483106786380E-01
 cg2d: Sum(rhs),rhsMax =  -1.29163674464047E-03  1.32507275992099E-01
 cg2d: Sum(rhs),rhsMax =  -1.29212911583212E-03  1.32531443808547E-01
 cg2d: Sum(rhs),rhsMax =  -1.29262162486290E-03  1.32555610219421E-01
 cg2d: Sum(rhs),rhsMax =  -1.29311427035171E-03  1.32579775208424E-01
 cg2d: Sum(rhs),rhsMax =  -1.29360705127346E-03  1.32603938759248E-01
 cg2d: Sum(rhs),rhsMax =  -1.29409996639725E-03  1.32628100855585E-01
 cg2d: Sum(rhs),rhsMax =  -1.29459301435289E-03  1.32652261481126E-01
 cg2d: Sum(rhs),rhsMax =  -1.29508619447053E-03  1.32676420619550E-01
 cg2d: Sum(rhs),rhsMax =  -1.29557950512852E-03  1.32700578254544E-01
 cg2d: Sum(rhs),rhsMax =  -1.29607294557800E-03  1.32724734369779E-01
 cg2d: Sum(rhs),rhsMax =  -1.29656651436657E-03  1.32748888948931E-01
 cg2d: Sum(rhs),rhsMax =  -1.29706021034989E-03  1.32773041975671E-01
 cg2d: Sum(rhs),rhsMax =  -1.29755403230251E-03  1.32797193433665E-01
 cg2d: Sum(rhs),rhsMax =  -1.29804797915670E-03  1.32821343306576E-01
 cg2d: Sum(rhs),rhsMax =  -1.29854204940637E-03  1.32845491578062E-01
 cg2d: Sum(rhs),rhsMax =  -1.29903624198023E-03  1.32869638231781E-01
 cg2d: Sum(rhs),rhsMax =  -1.29953055554657E-03  1.32893783251390E-01
 cg2d: Sum(rhs),rhsMax =  -1.30002498895119E-03  1.32917926620534E-01
 cg2d: Sum(rhs),rhsMax =  -1.30051954104353E-03  1.32942068322862E-01
 cg2d: Sum(rhs),rhsMax =  -1.30101421011276E-03  1.32966208342016E-01
 cg2d: Sum(rhs),rhsMax =  -1.30150899522724E-03  1.32990346661641E-01
 cg2d: Sum(rhs),rhsMax =  -1.30200389525542E-03  1.33014483265368E-01
 cg2d: Sum(rhs),rhsMax =  -1.30249890844107E-03  1.33038618136841E-01
 cg2d: Sum(rhs),rhsMax =  -1.30299403389612E-03  1.33062751259682E-01
 cg2d: Sum(rhs),rhsMax =  -1.30348926997541E-03  1.33086882617527E-01
 cg2d: Sum(rhs),rhsMax =  -1.30398461566083E-03  1.33111012193997E-01
 cg2d: Sum(rhs),rhsMax =  -1.30448006931108E-03  1.33135139972720E-01
 cg2d: Sum(rhs),rhsMax =  -1.30497562939310E-03  1.33159265937313E-01
 cg2d: Sum(rhs),rhsMax =  -1.30547129524321E-03  1.33183390071394E-01
 cg2d: Sum(rhs),rhsMax =  -1.30596706514947E-03  1.33207512358579E-01
 cg2d: Sum(rhs),rhsMax =  -1.30646293756544E-03  1.33231632782480E-01
 cg2d: Sum(rhs),rhsMax =  -1.30695891121674E-03  1.33255751326707E-01
 cg2d: Sum(rhs),rhsMax =  -1.30745498517328E-03  1.33279867974866E-01
 cg2d: Sum(rhs),rhsMax =  -1.30795115734116E-03  1.33303982710563E-01
 cg2d: Sum(rhs),rhsMax =  -1.30844742650658E-03  1.33328095517400E-01
 cg2d: Sum(rhs),rhsMax =  -1.30894379178396E-03  1.33352206378976E-01
 cg2d: Sum(rhs),rhsMax =  -1.30944025078265E-03  1.33376315278890E-01
 cg2d: Sum(rhs),rhsMax =  -1.30993680283709E-03  1.33400422200737E-01
 cg2d: Sum(rhs),rhsMax =  -1.31043344632048E-03  1.33424527128106E-01
 cg2d: Sum(rhs),rhsMax =  -1.31093017940664E-03  1.33448630044593E-01
 cg2d: Sum(rhs),rhsMax =  -1.31142700107409E-03  1.33472730933783E-01
 cg2d: Sum(rhs),rhsMax =  -1.31192391000168E-03  1.33496829779262E-01
 cg2d: Sum(rhs),rhsMax =  -1.31242090410984E-03  1.33520926564615E-01
 cg2d: Sum(rhs),rhsMax =  -1.31291798223846E-03  1.33545021273424E-01
 cg2d: Sum(rhs),rhsMax =  -1.31341514296239E-03  1.33569113889268E-01
 cg2d: Sum(rhs),rhsMax =  -1.31391238454472E-03  1.33593204395727E-01
 cg2d: Sum(rhs),rhsMax =  -1.31440970586167E-03  1.33617292776375E-01
 cg2d: Sum(rhs),rhsMax =  -1.31490710547012E-03  1.33641379014788E-01
 cg2d: Sum(rhs),rhsMax =  -1.31540458101915E-03  1.33665463094534E-01
 cg2d: Sum(rhs),rhsMax =  -1.31590213153207E-03  1.33689544999189E-01
 cg2d: Sum(rhs),rhsMax =  -1.31639975573719E-03  1.33713624712318E-01
 cg2d: Sum(rhs),rhsMax =  -1.31689745146010E-03  1.33737702217489E-01
 cg2d: Sum(rhs),rhsMax =  -1.31739521788407E-03  1.33761777498269E-01
 cg2d: Sum(rhs),rhsMax =  -1.31789305265675E-03  1.33785850538216E-01
 cg2d: Sum(rhs),rhsMax =  -1.31839095483860E-03  1.33809921320897E-01
 cg2d: Sum(rhs),rhsMax =  -1.31888892246530E-03  1.33833989829872E-01
 cg2d: Sum(rhs),rhsMax =  -1.31938695414966E-03  1.33858056048699E-01
 cg2d: Sum(rhs),rhsMax =  -1.31988504812716E-03  1.33882119960938E-01
 cg2d: Sum(rhs),rhsMax =  -1.32038320289954E-03  1.33906181550138E-01
 cg2d: Sum(rhs),rhsMax =  -1.32088141677007E-03  1.33930240799862E-01
 cg2d: Sum(rhs),rhsMax =  -1.32137968819720E-03  1.33954297693657E-01
 cg2d: Sum(rhs),rhsMax =  -1.32187801565974E-03  1.33978352215076E-01
 cg2d: Sum(rhs),rhsMax =  -1.32237639725477E-03  1.34002404347675E-01
 cg2d: Sum(rhs),rhsMax =  -1.32287483144186E-03  1.34026454075000E-01
 cg2d: Sum(rhs),rhsMax =  -1.32337331698673E-03  1.34050501380598E-01
 cg2d: Sum(rhs),rhsMax =  -1.32387185187413E-03  1.34074546248019E-01
 cg2d: Sum(rhs),rhsMax =  -1.32437043429927E-03  1.34098588660806E-01
(PID.TID 0000.0001)      cg2d_init_res =   1.92032281371180E-03
(PID.TID 0000.0001)      cg2d_iters(min,last) =      -1      83
(PID.TID 0000.0001)      cg2d_last_res =   9.88829232651527E-08
(PID.TID 0000.0001) // =======================================================
(PID.TID 0000.0001) // Begin MONITOR dynamic field statistics
(PID.TID 0000.0001) // =======================================================
(PID.TID 0000.0001) %MON time_tsnumber                =                  5256
(PID.TID 0000.0001) %MON time_secondsf                =   6.3072000000000E+06
(PID.TID 0000.0001) %MON dynstat_eta_max              =   1.3782629026729E-01
(PID.TID 0000.0001) %MON dynstat_eta_min              =  -5.9754295587881E-02
(PID.TID 0000.0001) %MON dynstat_eta_mean             =   8.8801935001612E-07
(PID.TID 0000.0001) %MON dynstat_eta_sd               =   5.8823769074502E-02
(PID.TID 0000.0001) %MON dynstat_eta_del2             =   1.9824014531030E-05
(PID.TID 0000.0001) %MON dynstat_uvel_max             =   9.2851985426509E-02
(PID.TID 0000.0001) %MON dynstat_uvel_min             =  -4.6977225481986E-02
(PID.TID 0000.0001) %MON dynstat_uvel_mean            =  -9.3573825096849E-08
(PID.TID 0000.0001) %MON dynstat_uvel_sd              =   2.5574851453765E-02
(PID.TID 0000.0001) %MON dynstat_uvel_del2            =   4.5341456922818E-05
(PID.TID 0000.0001) %MON dynstat_vvel_max             =   8.5817920578077E-02
(PID.TID 0000.0001) %MON dynstat_vvel_min             =  -6.1812598355754E-02
(PID.TID 0000.0001) %MON dynstat_vvel_mean            =   2.2553194622634E-07
(PID.TID 0000.0001) %MON dynstat_vvel_sd              =   2.3318289773156E-02
(PID.TID 0000.0001) %MON dynstat_vvel_del2            =   4.8400176932689E-05
(PID.TID 0000.0001) %MON dynstat_wvel_max             =   2.0509334066301E-08
(PID.TID 0000.0001) %MON dynstat_wvel_min             =  -1.3886174830841E-08
(PID.TID 0000.0001) %MON dynstat_wvel_mean            =  -1.5853503201571E-22
(PID.TID 0000.0001) %MON dynstat_wvel_sd              =   7.8981286932829E-09
(PID.TID 0000.0001) %MON dynstat_wvel_del2            =   4.0935451191773E-12
(PID.TID 0000.0001) %MON dynstat_theta_max            =   2.0000000000000E+01
(PID.TID 0000.0001) %MON dynstat_theta_min            =   2.0000000000000E+01
(PID.TID 0000.0001) %MON dynstat_theta_mean           =   2.0000000000000E+01
(PID.TID 0000.0001) %MON dynstat_theta_sd             =   3.8014036363165E-13
(PID.TID 0000.0001) %MON dynstat_theta_del2           =   0.0000000000000E+00
(PID.TID 0000.0001) %MON dynstat_salt_max             =   3.0000000000000E+01
(PID.TID 0000.0001) %MON dynstat_salt_min             =   3.0000000000000E+01
(PID.TID 0000.0001) %MON dynstat_salt_mean            =   2.9999999999999E+01
(PID.TID 0000.0001) %MON dynstat_salt_sd              =   5.5777604757167E-13
(PID.TID 0000.0001) %MON dynstat_salt_del2            =   0.0000000000000E+00
(PID.TID 0000.0001) %MON trAdv_CFL_u_max              =   5.5676247756364E-03
(PID.TID 0000.0001) %MON trAdv_CFL_v_max              =   5.1485550854064E-03
(PID.TID 0000.0001) %MON trAdv_CFL_w_max              =   5.4349399306958E-09
(PID.TID 0000.0001) %MON advcfl_uvel_max              =   5.5711191255906E-03
(PID.TID 0000.0001) %MON advcfl_vvel_max              =   5.1490752346846E-03
(PID.TID 0000.0001) %MON advcfl_wvel_max              =   9.8444803518243E-09
(PID.TID 0000.0001) %MON advcfl_W_hf_max              =   0.0000000000000E+00
(PID.TID 0000.0001) %MON pe_b_mean                    =   3.5475537940169E-06
(PID.TID 0000.0001) %MON ke_max                       =   4.3061428432213E-03
(PID.TID 0000.0001) %MON ke_mean                      =   5.8789474626138E-04
(PID.TID 0000.0001) %MON ke_vol                       =   6.8893493896486E+15
(PID.TID 0000.0001) %MON vort_r_min                   =  -9.5448204409127E-07
(PID.TID 0000.0001) %MON vort_r_max                   =   2.0808486834926E-06
(PID.TID 0000.0001) %MON vort_a_mean                  =   1.0600000000000E-04
(PID.TID 0000.0001) %MON vort_a_sd                    =   3.5400491341238E-06
(PID.TID 0000.0001) %MON vort_p_mean                  =   1.1652272308690E-04
(PID.TID 0000.0001) %MON vort_p_sd                    =   4.1768427247523E-05
(PID.TID 0000.0001) %MON surfExpan_theta_mean         =  -3.2266485779549E-21
(PID.TID 0000.0001) %MON surfExpan_salt_mean          =  -4.8519756114097E-21
(PID.TID 0000.0001) // =======================================================
(PID.TID 0000.0001) // End MONITOR dynamic field statistics
(PID.TID 0000.0001) // =======================================================
 cg2d: Sum(rhs),rhsMax =  -1.32486906319125E-03  1.34122628602504E-01
 cg2d: Sum(rhs),rhsMax =  -1.32536773616409E-03  1.34146666056664E-01
 cg2d: Sum(rhs),rhsMax =  -1.32586645186207E-03  1.34170701006821E-01
 cg2d: Sum(rhs),rhsMax =  -1.32636520884146E-03  1.34194733436522E-01
 cg2d: Sum(rhs),rhsMax =  -1.32686400482494E-03  1.34218763329309E-01
 cg2d: Sum(rhs),rhsMax =  -1.32736283842069E-03  1.34242790668718E-01
 cg2d: Sum(rhs),rhsMax =  -1.32786170788960E-03  1.34266815438296E-01
 cg2d: Sum(rhs),rhsMax =  -1.32836061172762E-03  1.34290837621575E-01
 cg2d: Sum(rhs),rhsMax =  -1.32885954784425E-03  1.34314857202098E-01
 cg2d: Sum(rhs),rhsMax =  -1.32935851499276E-03  1.34338874163400E-01
 cg2d: Sum(rhs),rhsMax =  -1.32985751112743E-03  1.34362888489022E-01
 cg2d: Sum(rhs),rhsMax =  -1.33035653456276E-03  1.34386900162497E-01
 cg2d: Sum(rhs),rhsMax =  -1.33085558368606E-03  1.34410909167363E-01
 cg2d: Sum(rhs),rhsMax =  -1.33135465667685E-03  1.34434915487156E-01
 cg2d: Sum(rhs),rhsMax =  -1.33185375164644E-03  1.34458919105409E-01
 cg2d: Sum(rhs),rhsMax =  -1.33235286707423E-03  1.34482920005663E-01
 cg2d: Sum(rhs),rhsMax =  -1.33285200132164E-03  1.34506918171446E-01
 cg2d: Sum(rhs),rhsMax =  -1.33335115187721E-03  1.34530913586292E-01
 cg2d: Sum(rhs),rhsMax =  -1.33385031786937E-03  1.34554906233740E-01
 cg2d: Sum(rhs),rhsMax =  -1.33434949720311E-03  1.34578896097323E-01
 cg2d: Sum(rhs),rhsMax =  -1.33484868821746E-03  1.34602883160573E-01
 cg2d: Sum(rhs),rhsMax =  -1.33534788895108E-03  1.34626867407020E-01
 cg2d: Sum(rhs),rhsMax =  -1.33584709712934E-03  1.34650848820207E-01
 cg2d: Sum(rhs),rhsMax =  -1.33634631211207E-03  1.34674827383658E-01
 cg2d: Sum(rhs),rhsMax =  -1.33684553136101E-03  1.34698803080910E-01
 cg2d: Sum(rhs),rhsMax =  -1.33734475314331E-03  1.34722775895500E-01
 cg2d: Sum(rhs),rhsMax =  -1.33784397593838E-03  1.34746745810958E-01
 cg2d: Sum(rhs),rhsMax =  -1.33834319752576E-03  1.34770712810815E-01
 cg2d: Sum(rhs),rhsMax =  -1.33884241666660E-03  1.34794676878610E-01
 cg2d: Sum(rhs),rhsMax =  -1.33934163097670E-03  1.34818637997877E-01
 cg2d: Sum(rhs),rhsMax =  -1.33984083897601E-03  1.34842596152149E-01
 cg2d: Sum(rhs),rhsMax =  -1.34034003879017E-03  1.34866551324955E-01
 cg2d: Sum(rhs),rhsMax =  -1.34083922886030E-03  1.34890503499844E-01
 cg2d: Sum(rhs),rhsMax =  -1.34133840675061E-03  1.34914452660339E-01
 cg2d: Sum(rhs),rhsMax =  -1.34183757110039E-03  1.34938398789982E-01
 cg2d: Sum(rhs),rhsMax =  -1.34233672023466E-03  1.34962341872308E-01
 cg2d: Sum(rhs),rhsMax =  -1.34283585178965E-03  1.34986281890853E-01
 cg2d: Sum(rhs),rhsMax =  -1.34333496465272E-03  1.35010218829157E-01
 cg2d: Sum(rhs),rhsMax =  -1.34383405640860E-03  1.35034152670752E-01
 cg2d: Sum(rhs),rhsMax =  -1.34433312546994E-03  1.35058083399184E-01
 cg2d: Sum(rhs),rhsMax =  -1.34483216983168E-03  1.35082010997990E-01
 cg2d: Sum(rhs),rhsMax =  -1.34533118810118E-03  1.35105935450712E-01
 cg2d: Sum(rhs),rhsMax =  -1.34583017791196E-03  1.35129856740889E-01
 cg2d: Sum(rhs),rhsMax =  -1.34632913776494E-03  1.35153774852064E-01
 cg2d: Sum(rhs),rhsMax =  -1.34682806574409E-03  1.35177689767777E-01
 cg2d: Sum(rhs),rhsMax =  -1.34732696012293E-03  1.35201601471574E-01
 cg2d: Sum(rhs),rhsMax =  -1.34782581871450E-03  1.35225509947004E-01
 cg2d: Sum(rhs),rhsMax =  -1.34832464007342E-03  1.35249415177603E-01
 cg2d: Sum(rhs),rhsMax =  -1.34882342241151E-03  1.35273317146924E-01
 cg2d: Sum(rhs),rhsMax =  -1.34932216377199E-03  1.35297215838515E-01
 cg2d: Sum(rhs),rhsMax =  -1.34982086235939E-03  1.35321111235922E-01
 cg2d: Sum(rhs),rhsMax =  -1.35031951598671E-03  1.35345003322700E-01
 cg2d: Sum(rhs),rhsMax =  -1.35081812343218E-03  1.35368892082397E-01
 cg2d: Sum(rhs),rhsMax =  -1.35131668267463E-03  1.35392777498562E-01
 cg2d: Sum(rhs),rhsMax =  -1.35181519172272E-03  1.35416659554759E-01
 cg2d: Sum(rhs),rhsMax =  -1.35231364881224E-03  1.35440538234535E-01
 cg2d: Sum(rhs),rhsMax =  -1.35281205196918E-03  1.35464413521449E-01
 cg2d: Sum(rhs),rhsMax =  -1.35331039981387E-03  1.35488285399056E-01
 cg2d: Sum(rhs),rhsMax =  -1.35380869020226E-03  1.35512153850921E-01
 cg2d: Sum(rhs),rhsMax =  -1.35430692143896E-03  1.35536018860605E-01
 cg2d: Sum(rhs),rhsMax =  -1.35480509169675E-03  1.35559880411667E-01
 cg2d: Sum(rhs),rhsMax =  -1.35530319928720E-03  1.35583738487671E-01
 cg2d: Sum(rhs),rhsMax =  -1.35580124235544E-03  1.35607593072188E-01
 cg2d: Sum(rhs),rhsMax =  -1.35629921894740E-03  1.35631444148782E-01
 cg2d: Sum(rhs),rhsMax =  -1.35679712738155E-03  1.35655291701021E-01
 cg2d: Sum(rhs),rhsMax =  -1.35729496602345E-03  1.35679135712480E-01
 cg2d: Sum(rhs),rhsMax =  -1.35779273271192E-03  1.35702976166729E-01
 cg2d: Sum(rhs),rhsMax =  -1.35829042594226E-03  1.35726813047346E-01
 cg2d: Sum(rhs),rhsMax =  -1.35878804399797E-03  1.35750646337900E-01
 cg2d: Sum(rhs),rhsMax =  -1.35928558501268E-03  1.35774476021981E-01
 cg2d: Sum(rhs),rhsMax =  -1.35978304753107E-03  1.35798302083163E-01
 cg2d: Sum(rhs),rhsMax =  -1.36028042905287E-03  1.35822124505029E-01
(PID.TID 0000.0001)      cg2d_init_res =   1.88443110398642E-03
(PID.TID 0000.0001)      cg2d_iters(min,last) =      -1      83
(PID.TID 0000.0001)      cg2d_last_res =   9.99688780741536E-08
(PID.TID 0000.0001) // =======================================================
(PID.TID 0000.0001) // Begin MONITOR dynamic field statistics
(PID.TID 0000.0001) // =======================================================
(PID.TID 0000.0001) %MON time_tsnumber                =                  5328
(PID.TID 0000.0001) %MON time_secondsf                =   6.3936000000000E+06
(PID.TID 0000.0001) %MON dynstat_eta_max              =   1.3930596909831E-01
(PID.TID 0000.0001) %MON dynstat_eta_min              =  -6.0135788114564E-02
(PID.TID 0000.0001) %MON dynstat_eta_mean             =   9.2380706680563E-07
(PID.TID 0000.0001) %MON dynstat_eta_sd               =   5.9421521382910E-02
(PID.TID 0000.0001) %MON dynstat_eta_del2             =   1.9979472019202E-05
(PID.TID 0000.0001) %MON dynstat_uvel_max             =   9.3975541100099E-02
(PID.TID 0000.0001) %MON dynstat_uvel_min             =  -4.7857683936035E-02
(PID.TID 0000.0001) %MON dynstat_uvel_mean            =  -8.6380572313043E-08
(PID.TID 0000.0001) %MON dynstat_uvel_sd              =   2.5830349552040E-02
(PID.TID 0000.0001) %MON dynstat_uvel_del2            =   4.5902084002793E-05
(PID.TID 0000.0001) %MON dynstat_vvel_max             =   8.6428702556450E-02
(PID.TID 0000.0001) %MON dynstat_vvel_min             =  -6.2484070977139E-02
(PID.TID 0000.0001) %MON dynstat_vvel_mean            =   2.2688843127174E-07
(PID.TID 0000.0001) %MON dynstat_vvel_sd              =   2.3512056505341E-02
(PID.TID 0000.0001) %MON dynstat_vvel_del2            =   4.8444287219171E-05
(PID.TID 0000.0001) %MON dynstat_wvel_max             =   2.0419284035452E-08
(PID.TID 0000.0001) %MON dynstat_wvel_min             =  -1.3892291071825E-08
(PID.TID 0000.0001) %MON dynstat_wvel_mean            =   2.1694682396224E-21
(PID.TID 0000.0001) %MON dynstat_wvel_sd              =   7.8418299727534E-09
(PID.TID 0000.0001) %MON dynstat_wvel_del2            =   4.0770838028148E-12
(PID.TID 0000.0001) %MON dynstat_theta_max            =   2.0000000000000E+01
(PID.TID 0000.0001) %MON dynstat_theta_min            =   2.0000000000000E+01
(PID.TID 0000.0001) %MON dynstat_theta_mean           =   2.0000000000000E+01
(PID.TID 0000.0001) %MON dynstat_theta_sd             =   3.8014036363165E-13
(PID.TID 0000.0001) %MON dynstat_theta_del2           =   0.0000000000000E+00
(PID.TID 0000.0001) %MON dynstat_salt_max             =   3.0000000000000E+01
(PID.TID 0000.0001) %MON dynstat_salt_min             =   3.0000000000000E+01
(PID.TID 0000.0001) %MON dynstat_salt_mean            =   2.9999999999999E+01
(PID.TID 0000.0001) %MON dynstat_salt_sd              =   5.5777604757167E-13
(PID.TID 0000.0001) %MON dynstat_salt_del2            =   0.0000000000000E+00
(PID.TID 0000.0001) %MON trAdv_CFL_u_max              =   5.6350036360766E-03
(PID.TID 0000.0001) %MON trAdv_CFL_v_max              =   5.1851272390620E-03
(PID.TID 0000.0001) %MON trAdv_CFL_w_max              =   5.4061913734080E-09
(PID.TID 0000.0001) %MON advcfl_uvel_max              =   5.6385324660059E-03
(PID.TID 0000.0001) %MON advcfl_vvel_max              =   5.1857221533870E-03
(PID.TID 0000.0001) %MON advcfl_wvel_max              =   9.8012563370168E-09
(PID.TID 0000.0001) %MON advcfl_W_hf_max              =   0.0000000000000E+00
(PID.TID 0000.0001) %MON pe_b_mean                    =   3.6200188126583E-06
(PID.TID 0000.0001) %MON ke_max                       =   4.4106765944413E-03
(PID.TID 0000.0001) %MON ke_mean                      =   5.9879460533365E-04
(PID.TID 0000.0001) %MON ke_vol                       =   6.8893493896486E+15
(PID.TID 0000.0001) %MON vort_r_min                   =  -9.6306552949667E-07
(PID.TID 0000.0001) %MON vort_r_max                   =   2.0833582986353E-06
(PID.TID 0000.0001) %MON vort_a_mean                  =   1.0600000000000E-04
(PID.TID 0000.0001) %MON vort_a_sd                    =   3.5403691750705E-06
(PID.TID 0000.0001) %MON vort_p_mean                  =   1.1652272308690E-04
(PID.TID 0000.0001) %MON vort_p_sd                    =   4.1768945406995E-05
(PID.TID 0000.0001) %MON surfExpan_theta_mean         =   4.3440525251034E-20
(PID.TID 0000.0001) %MON surfExpan_salt_mean          =   6.5164579904970E-20
(PID.TID 0000.0001) // =======================================================
(PID.TID 0000.0001) // End MONITOR dynamic field statistics
(PID.TID 0000.0001) // =======================================================
 cg2d: Sum(rhs),rhsMax =  -1.36077772822639E-03  1.35845943271166E-01
 cg2d: Sum(rhs),rhsMax =  -1.36127494365653E-03  1.35869758365159E-01
 cg2d: Sum(rhs),rhsMax =  -1.36162883510216E-03  1.35893569444905E-01
 cg2d: Sum(rhs),rhsMax =  -1.36198261810315E-03  1.35917377170863E-01
 cg2d: Sum(rhs),rhsMax =  -1.36233623689989E-03  1.35941181161274E-01
 cg2d: Sum(rhs),rhsMax =  -1.36268971067592E-03  1.35964981409430E-01
 cg2d: Sum(rhs),rhsMax =  -1.36304303810160E-03  1.35988777900787E-01
 cg2d: Sum(rhs),rhsMax =  -1.36339621709063E-03  1.36012570620620E-01
 cg2d: Sum(rhs),rhsMax =  -1.36374924572997E-03  1.36036359553922E-01
 cg2d: Sum(rhs),rhsMax =  -1.36410212254587E-03  1.36060144684627E-01
 cg2d: Sum(rhs),rhsMax =  -1.36445484553591E-03  1.36083925996074E-01
 cg2d: Sum(rhs),rhsMax =  -1.36480741353036E-03  1.36107703471483E-01
 cg2d: Sum(rhs),rhsMax =  -1.36515982452503E-03  1.36131477094221E-01
 cg2d: Sum(rhs),rhsMax =  -1.36551207721098E-03  1.36155246847852E-01
 cg2d: Sum(rhs),rhsMax =  -1.36586416971134E-03  1.36179012716044E-01
 cg2d: Sum(rhs),rhsMax =  -1.36621610103774E-03  1.36202774682505E-01
 cg2d: Sum(rhs),rhsMax =  -1.36656786928699E-03  1.36226532730922E-01
 cg2d: Sum(rhs),rhsMax =  -1.36691947288920E-03  1.36250286844952E-01
 cg2d: Sum(rhs),rhsMax =  -1.36727091050864E-03  1.36274037008222E-01
 cg2d: Sum(rhs),rhsMax =  -1.36762218047233E-03  1.36297783204345E-01
 cg2d: Sum(rhs),rhsMax =  -1.36797328144928E-03  1.36321525416941E-01
 cg2d: Sum(rhs),rhsMax =  -1.36832421183921E-03  1.36345263629641E-01
 cg2d: Sum(rhs),rhsMax =  -1.36867497033673E-03  1.36368997826085E-01
 cg2d: Sum(rhs),rhsMax =  -1.36902555522840E-03  1.36392727989915E-01
 cg2d: Sum(rhs),rhsMax =  -1.36937596528477E-03  1.36416454104783E-01
 cg2d: Sum(rhs),rhsMax =  -1.36972619913332E-03  1.36440176154348E-01
 cg2d: Sum(rhs),rhsMax =  -1.37007625541374E-03  1.36463894122247E-01
 cg2d: Sum(rhs),rhsMax =  -1.37042613286643E-03  1.36487607992153E-01
 cg2d: Sum(rhs),rhsMax =  -1.37077582985150E-03  1.36511317747715E-01
 cg2d: Sum(rhs),rhsMax =  -1.37112534542326E-03  1.36535023372605E-01
 cg2d: Sum(rhs),rhsMax =  -1.37147467805108E-03  1.36558724850484E-01
 cg2d: Sum(rhs),rhsMax =  -1.37182382596261E-03  1.36582422165029E-01
 cg2d: Sum(rhs),rhsMax =  -1.37217278850204E-03  1.36606115299916E-01
 cg2d: Sum(rhs),rhsMax =  -1.37252156422397E-03  1.36629804238817E-01
 cg2d: Sum(rhs),rhsMax =  -1.37287015184710E-03  1.36653488965418E-01
 cg2d: Sum(rhs),rhsMax =  -1.37321855039331E-03  1.36677169463398E-01
 cg2d: Sum(rhs),rhsMax =  -1.37356675850130E-03  1.36700845716445E-01
 cg2d: Sum(rhs),rhsMax =  -1.37391477456817E-03  1.36724517708252E-01
 cg2d: Sum(rhs),rhsMax =  -1.37426259812073E-03  1.36748185422515E-01
 cg2d: Sum(rhs),rhsMax =  -1.37461022768666E-03  1.36771848842929E-01
 cg2d: Sum(rhs),rhsMax =  -1.37495766206461E-03  1.36795507953205E-01
 cg2d: Sum(rhs),rhsMax =  -1.37530490073069E-03  1.36819162737043E-01
 cg2d: Sum(rhs),rhsMax =  -1.37565194190493E-03  1.36842813178159E-01
 cg2d: Sum(rhs),rhsMax =  -1.37599878463976E-03  1.36866459260266E-01
 cg2d: Sum(rhs),rhsMax =  -1.37634542847587E-03  1.36890100967079E-01
 cg2d: Sum(rhs),rhsMax =  -1.37669187195858E-03  1.36913738282324E-01
 cg2d: Sum(rhs),rhsMax =  -1.37703811440028E-03  1.36937371189729E-01
 cg2d: Sum(rhs),rhsMax =  -1.37738415446946E-03  1.36960999673021E-01
 cg2d: Sum(rhs),rhsMax =  -1.37772999139022E-03  1.36984623715935E-01
 cg2d: Sum(rhs),rhsMax =  -1.37807562463689E-03  1.37008243302212E-01
 cg2d: Sum(rhs),rhsMax =  -1.37842105268746E-03  1.37031858415595E-01
 cg2d: Sum(rhs),rhsMax =  -1.37876627571414E-03  1.37055469039826E-01
 cg2d: Sum(rhs),rhsMax =  -1.37911129163201E-03  1.37079075158664E-01
 cg2d: Sum(rhs),rhsMax =  -1.37945610038576E-03  1.37102676755861E-01
 cg2d: Sum(rhs),rhsMax =  -1.37980070098217E-03  1.37126273815180E-01
 cg2d: Sum(rhs),rhsMax =  -1.38014509296535E-03  1.37149866320382E-01
 cg2d: Sum(rhs),rhsMax =  -1.38048927528897E-03  1.37173454255239E-01
 cg2d: Sum(rhs),rhsMax =  -1.38083324749401E-03  1.37197037603525E-01
 cg2d: Sum(rhs),rhsMax =  -1.38117700898718E-03  1.37220616349016E-01
 cg2d: Sum(rhs),rhsMax =  -1.38152055852683E-03  1.37244190475494E-01
 cg2d: Sum(rhs),rhsMax =  -1.38186389630519E-03  1.37267759966749E-01
 cg2d: Sum(rhs),rhsMax =  -1.38220702162773E-03  1.37291324806573E-01
 cg2d: Sum(rhs),rhsMax =  -1.38254993325437E-03  1.37314884978761E-01
 cg2d: Sum(rhs),rhsMax =  -1.38289263126433E-03  1.37338440467115E-01
 cg2d: Sum(rhs),rhsMax =  -1.38323511537431E-03  1.37361991255441E-01
 cg2d: Sum(rhs),rhsMax =  -1.38357738455414E-03  1.37385537327552E-01
 cg2d: Sum(rhs),rhsMax =  -1.38391943875365E-03  1.37409078667262E-01
 cg2d: Sum(rhs),rhsMax =  -1.38426127735007E-03  1.37432615258395E-01
 cg2d: Sum(rhs),rhsMax =  -1.38460290031560E-03  1.37456147084771E-01
 cg2d: Sum(rhs),rhsMax =  -1.38494430697281E-03  1.37479674130226E-01
 cg2d: Sum(rhs),rhsMax =  -1.38528549710267E-03  1.37503196378594E-01
 cg2d: Sum(rhs),rhsMax =  -1.38562647046267E-03  1.37526713813715E-01
(PID.TID 0000.0001)      cg2d_init_res =   1.84887983511841E-03
(PID.TID 0000.0001)      cg2d_iters(min,last) =      -1      84
(PID.TID 0000.0001)      cg2d_last_res =   9.35565160848800E-08
(PID.TID 0000.0001) // =======================================================
(PID.TID 0000.0001) // Begin MONITOR dynamic field statistics
(PID.TID 0000.0001) // =======================================================
(PID.TID 0000.0001) %MON time_tsnumber                =                  5400
(PID.TID 0000.0001) %MON time_secondsf                =   6.4800000000000E+06
(PID.TID 0000.0001) %MON dynstat_eta_max              =   1.4077037713607E-01
(PID.TID 0000.0001) %MON dynstat_eta_min              =  -6.0506094807058E-02
(PID.TID 0000.0001) %MON dynstat_eta_mean             =   9.5271210707298E-07
(PID.TID 0000.0001) %MON dynstat_eta_sd               =   6.0014546729904E-02
(PID.TID 0000.0001) %MON dynstat_eta_del2             =   2.0133831066221E-05
(PID.TID 0000.0001) %MON dynstat_uvel_max             =   9.5101376612161E-02
(PID.TID 0000.0001) %MON dynstat_uvel_min             =  -4.8710868408850E-02
(PID.TID 0000.0001) %MON dynstat_uvel_mean            =  -7.8835603467185E-08
(PID.TID 0000.0001) %MON dynstat_uvel_sd              =   2.6084840144858E-02
(PID.TID 0000.0001) %MON dynstat_uvel_del2            =   4.6467967072086E-05
(PID.TID 0000.0001) %MON dynstat_vvel_max             =   8.7066173844750E-02
(PID.TID 0000.0001) %MON dynstat_vvel_min             =  -6.3135134693620E-02
(PID.TID 0000.0001) %MON dynstat_vvel_mean            =   2.2795032654065E-07
(PID.TID 0000.0001) %MON dynstat_vvel_sd              =   2.3702393052857E-02
(PID.TID 0000.0001) %MON dynstat_vvel_del2            =   4.8462532152106E-05
(PID.TID 0000.0001) %MON dynstat_wvel_max             =   2.0368370197830E-08
(PID.TID 0000.0001) %MON dynstat_wvel_min             =  -1.3968531116843E-08
(PID.TID 0000.0001) %MON dynstat_wvel_mean            =  -2.5929231621073E-21
(PID.TID 0000.0001) %MON dynstat_wvel_sd              =   7.7896480188574E-09
(PID.TID 0000.0001) %MON dynstat_wvel_del2            =   4.0609028793508E-12
(PID.TID 0000.0001) %MON dynstat_theta_max            =   2.0000000000000E+01
(PID.TID 0000.0001) %MON dynstat_theta_min            =   2.0000000000000E+01
(PID.TID 0000.0001) %MON dynstat_theta_mean           =   2.0000000000000E+01
(PID.TID 0000.0001) %MON dynstat_theta_sd             =   3.8014036363165E-13
(PID.TID 0000.0001) %MON dynstat_theta_del2           =   0.0000000000000E+00
(PID.TID 0000.0001) %MON dynstat_salt_max             =   3.0000000000000E+01
(PID.TID 0000.0001) %MON dynstat_salt_min             =   3.0000000000000E+01
(PID.TID 0000.0001) %MON dynstat_salt_mean            =   2.9999999999999E+01
(PID.TID 0000.0001) %MON dynstat_salt_sd              =   5.5777604757167E-13
(PID.TID 0000.0001) %MON dynstat_salt_del2            =   0.0000000000000E+00
(PID.TID 0000.0001) %MON trAdv_CFL_u_max              =   5.7025223977851E-03
(PID.TID 0000.0001) %MON trAdv_CFL_v_max              =   5.2235019175453E-03
(PID.TID 0000.0001) %MON trAdv_CFL_w_max              =   5.3818010576935E-09
(PID.TID 0000.0001) %MON advcfl_uvel_max              =   5.7060825967297E-03
(PID.TID 0000.0001) %MON advcfl_vvel_max              =   5.2239704306850E-03
(PID.TID 0000.0001) %MON advcfl_wvel_max              =   9.7768176949583E-09
(PID.TID 0000.0001) %MON advcfl_W_hf_max              =   0.0000000000000E+00
(PID.TID 0000.0001) %MON pe_b_mean                    =   3.6926347667574E-06
(PID.TID 0000.0001) %MON ke_max                       =   4.5165050800693E-03
(PID.TID 0000.0001) %MON ke_mean                      =   6.0968978627184E-04
(PID.TID 0000.0001) %MON ke_vol                       =   6.8893493896486E+15
(PID.TID 0000.0001) %MON vort_r_min                   =  -9.7240752505408E-07
(PID.TID 0000.0001) %MON vort_r_max                   =   2.0888769665675E-06
(PID.TID 0000.0001) %MON vort_a_mean                  =   1.0600000000000E-04
(PID.TID 0000.0001) %MON vort_a_sd                    =   3.5406859834887E-06
(PID.TID 0000.0001) %MON vort_p_mean                  =   1.1652272308690E-04
(PID.TID 0000.0001) %MON vort_p_sd                    =   4.1769443519233E-05
(PID.TID 0000.0001) %MON surfExpan_theta_mean         =  -5.1826676283895E-20
(PID.TID 0000.0001) %MON surfExpan_salt_mean          =  -7.7746327894109E-20
(PID.TID 0000.0001) // =======================================================
(PID.TID 0000.0001) // End MONITOR dynamic field statistics
(PID.TID 0000.0001) // =======================================================
 cg2d: Sum(rhs),rhsMax =  -1.38596722670988E-03  1.37550226419435E-01
 cg2d: Sum(rhs),rhsMax =  -1.38630776563787E-03  1.37573734179606E-01
 cg2d: Sum(rhs),rhsMax =  -1.38664808743193E-03  1.37597237078085E-01
 cg2d: Sum(rhs),rhsMax =  -1.38698819137051E-03  1.37620735098735E-01
 cg2d: Sum(rhs),rhsMax =  -1.38732807763864E-03  1.37644228225418E-01
 cg2d: Sum(rhs),rhsMax =  -1.38766774579012E-03  1.37667716442010E-01
 cg2d: Sum(rhs),rhsMax =  -1.38800719610473E-03  1.37691199732388E-01
 cg2d: Sum(rhs),rhsMax =  -1.38834642867688E-03  1.37714678080434E-01
 cg2d: Sum(rhs),rhsMax =  -1.38868544307273E-03  1.37738151470038E-01
 cg2d: Sum(rhs),rhsMax =  -1.38902423961568E-03  1.37761619885094E-01
 cg2d: Sum(rhs),rhsMax =  -1.38936281813564E-03  1.37785083309497E-01
 cg2d: Sum(rhs),rhsMax =  -1.38970117894312E-03  1.37808541727160E-01
 cg2d: Sum(rhs),rhsMax =  -1.39003932236138E-03  1.37831995121984E-01
 cg2d: Sum(rhs),rhsMax =  -1.39037724805372E-03  1.37855443477893E-01
 cg2d: Sum(rhs),rhsMax =  -1.39071495617525E-03  1.37878886778805E-01
 cg2d: Sum(rhs),rhsMax =  -1.39105244742897E-03  1.37902325008651E-01
 cg2d: Sum(rhs),rhsMax =  -1.39138972148636E-03  1.37925758151360E-01
 cg2d: Sum(rhs),rhsMax =  -1.39172677907437E-03  1.37949186190876E-01
 cg2d: Sum(rhs),rhsMax =  -1.39206362035102E-03  1.37972609111140E-01
 cg2d: Sum(rhs),rhsMax =  -1.39240024588088E-03  1.37996026896106E-01
 cg2d: Sum(rhs),rhsMax =  -1.39273665527447E-03  1.38019439529728E-01
 cg2d: Sum(rhs),rhsMax =  -1.39307284963023E-03  1.38042846995971E-01
 cg2d: Sum(rhs),rhsMax =  -1.39340882903564E-03  1.38066249278804E-01
 cg2d: Sum(rhs),rhsMax =  -1.39374459443189E-03  1.38089646362200E-01
 cg2d: Sum(rhs),rhsMax =  -1.39408014564374E-03  1.38113038230145E-01
 cg2d: Sum(rhs),rhsMax =  -1.39441548360379E-03  1.38136424866622E-01
 cg2d: Sum(rhs),rhsMax =  -1.39475060859569E-03  1.38159806255624E-01
 cg2d: Sum(rhs),rhsMax =  -1.39508552132001E-03  1.38183182381152E-01
 cg2d: Sum(rhs),rhsMax =  -1.39542022235552E-03  1.38206553227215E-01
 cg2d: Sum(rhs),rhsMax =  -1.39575471246558E-03  1.38229918777820E-01
 cg2d: Sum(rhs),rhsMax =  -1.39608899202971E-03  1.38253279016988E-01
 cg2d: Sum(rhs),rhsMax =  -1.39642306197823E-03  1.38276633928744E-01
 cg2d: Sum(rhs),rhsMax =  -1.39675692281691E-03  1.38299983497119E-01
 cg2d: Sum(rhs),rhsMax =  -1.39709057525669E-03  1.38323327706151E-01
 cg2d: Sum(rhs),rhsMax =  -1.39742402018765E-03  1.38346666539884E-01
 cg2d: Sum(rhs),rhsMax =  -1.39775725879522E-03  1.38369999982370E-01
 cg2d: Sum(rhs),rhsMax =  -1.39809029096120E-03  1.38393328017664E-01
 cg2d: Sum(rhs),rhsMax =  -1.39842311814483E-03  1.38416650629834E-01
 cg2d: Sum(rhs),rhsMax =  -1.39875574128841E-03  1.38439967802947E-01
 cg2d: Sum(rhs),rhsMax =  -1.39908816099105E-03  1.38463279521083E-01
 cg2d: Sum(rhs),rhsMax =  -1.39942037824989E-03  1.38486585768326E-01
 cg2d: Sum(rhs),rhsMax =  -1.39975239421143E-03  1.38509886528764E-01
 cg2d: Sum(rhs),rhsMax =  -1.40008420955139E-03  1.38533181786500E-01
 cg2d: Sum(rhs),rhsMax =  -1.40041582560917E-03  1.38556471525634E-01
 cg2d: Sum(rhs),rhsMax =  -1.40074724288727E-03  1.38579755730280E-01
 cg2d: Sum(rhs),rhsMax =  -1.40107846287495E-03  1.38603034384556E-01
 cg2d: Sum(rhs),rhsMax =  -1.40140948638415E-03  1.38626307472588E-01
 cg2d: Sum(rhs),rhsMax =  -1.40174031468702E-03  1.38649574978507E-01
 cg2d: Sum(rhs),rhsMax =  -1.40207094850944E-03  1.38672836886457E-01
 cg2d: Sum(rhs),rhsMax =  -1.40240138941464E-03  1.38696093180580E-01
 cg2d: Sum(rhs),rhsMax =  -1.40273163805175E-03  1.38719343845031E-01
 cg2d: Sum(rhs),rhsMax =  -1.40306169607248E-03  1.38742588863972E-01
 cg2d: Sum(rhs),rhsMax =  -1.40339156461543E-03  1.38765828221572E-01
 cg2d: Sum(rhs),rhsMax =  -1.40372124461465E-03  1.38789061902003E-01
 cg2d: Sum(rhs),rhsMax =  -1.40405073722749E-03  1.38812289889455E-01
 cg2d: Sum(rhs),rhsMax =  -1.40438004403681E-03  1.38835512168112E-01
 cg2d: Sum(rhs),rhsMax =  -1.40470916592295E-03  1.38858728722173E-01
 cg2d: Sum(rhs),rhsMax =  -1.40503810441720E-03  1.38881939535845E-01
 cg2d: Sum(rhs),rhsMax =  -1.40536686082953E-03  1.38905144593339E-01
 cg2d: Sum(rhs),rhsMax =  -1.40569543609648E-03  1.38928343878873E-01
 cg2d: Sum(rhs),rhsMax =  -1.40602383203043E-03  1.38951537376680E-01
 cg2d: Sum(rhs),rhsMax =  -1.40635204932878E-03  1.38974725070991E-01
 cg2d: Sum(rhs),rhsMax =  -1.40668008982597E-03  1.38997906946049E-01
 cg2d: Sum(rhs),rhsMax =  -1.40700795480200E-03  1.39021082986109E-01
 cg2d: Sum(rhs),rhsMax =  -1.40733564530110E-03  1.39044253175422E-01
 cg2d: Sum(rhs),rhsMax =  -1.40766316329790E-03  1.39067417498259E-01
 cg2d: Sum(rhs),rhsMax =  -1.40799050947894E-03  1.39090575938893E-01
 cg2d: Sum(rhs),rhsMax =  -1.40831768564149E-03  1.39113728481604E-01
 cg2d: Sum(rhs),rhsMax =  -1.40864469331422E-03  1.39136875110682E-01
 cg2d: Sum(rhs),rhsMax =  -1.40897153340573E-03  1.39160015810425E-01
 cg2d: Sum(rhs),rhsMax =  -1.40929820798039E-03  1.39183150565140E-01
 cg2d: Sum(rhs),rhsMax =  -1.40962471812906E-03  1.39206279359137E-01
(PID.TID 0000.0001)      cg2d_init_res =   1.81377116908997E-03
(PID.TID 0000.0001)      cg2d_iters(min,last) =      -1      84
(PID.TID 0000.0001)      cg2d_last_res =   9.34887738197226E-08
(PID.TID 0000.0001) // =======================================================
(PID.TID 0000.0001) // Begin MONITOR dynamic field statistics
(PID.TID 0000.0001) // =======================================================
(PID.TID 0000.0001) %MON time_tsnumber                =                  5472
(PID.TID 0000.0001) %MON time_secondsf                =   6.5664000000000E+06
(PID.TID 0000.0001) %MON dynstat_eta_max              =   1.4223773819532E-01
(PID.TID 0000.0001) %MON dynstat_eta_min              =  -6.0872490022369E-02
(PID.TID 0000.0001) %MON dynstat_eta_mean             =   9.8103027945269E-07
(PID.TID 0000.0001) %MON dynstat_eta_sd               =   6.0603167012458E-02
(PID.TID 0000.0001) %MON dynstat_eta_del2             =   2.0287234712870E-05
(PID.TID 0000.0001) %MON dynstat_uvel_max             =   9.6225606647547E-02
(PID.TID 0000.0001) %MON dynstat_uvel_min             =  -4.9533118654504E-02
(PID.TID 0000.0001) %MON dynstat_uvel_mean            =  -7.1155317253831E-08
(PID.TID 0000.0001) %MON dynstat_uvel_sd              =   2.6337941407438E-02
(PID.TID 0000.0001) %MON dynstat_uvel_del2            =   4.7038158855426E-05
(PID.TID 0000.0001) %MON dynstat_vvel_max             =   8.7549511258872E-02
(PID.TID 0000.0001) %MON dynstat_vvel_min             =  -6.3765914269245E-02
(PID.TID 0000.0001) %MON dynstat_vvel_mean            =   2.2869334983606E-07
(PID.TID 0000.0001) %MON dynstat_vvel_sd              =   2.3889627619310E-02
(PID.TID 0000.0001) %MON dynstat_vvel_del2            =   4.8455311398380E-05
(PID.TID 0000.0001) %MON dynstat_wvel_max             =   2.0330067744944E-08
(PID.TID 0000.0001) %MON dynstat_wvel_min             =  -1.4023961417843E-08
(PID.TID 0000.0001) %MON dynstat_wvel_mean            =  -6.2367841261827E-22
(PID.TID 0000.0001) %MON dynstat_wvel_sd              =   7.7414181909308E-09
(PID.TID 0000.0001) %MON dynstat_wvel_del2            =   4.0444243692225E-12
(PID.TID 0000.0001) %MON dynstat_theta_max            =   2.0000000000000E+01
(PID.TID 0000.0001) %MON dynstat_theta_min            =   2.0000000000000E+01
(PID.TID 0000.0001) %MON dynstat_theta_mean           =   2.0000000000000E+01
(PID.TID 0000.0001) %MON dynstat_theta_sd             =   3.8014036363165E-13
(PID.TID 0000.0001) %MON dynstat_theta_del2           =   0.0000000000000E+00
(PID.TID 0000.0001) %MON dynstat_salt_max             =   3.0000000000000E+01
(PID.TID 0000.0001) %MON dynstat_salt_min             =   3.0000000000000E+01
(PID.TID 0000.0001) %MON dynstat_salt_mean            =   2.9999999999999E+01
(PID.TID 0000.0001) %MON dynstat_salt_sd              =   5.5777604757167E-13
(PID.TID 0000.0001) %MON dynstat_salt_del2            =   0.0000000000000E+00
(PID.TID 0000.0001) %MON trAdv_CFL_u_max              =   5.7699481650074E-03
(PID.TID 0000.0001) %MON trAdv_CFL_v_max              =   5.2526322735368E-03
(PID.TID 0000.0001) %MON trAdv_CFL_w_max              =   5.3614459362735E-09
(PID.TID 0000.0001) %MON advcfl_uvel_max              =   5.7735363988528E-03
(PID.TID 0000.0001) %MON advcfl_vvel_max              =   5.2529706755323E-03
(PID.TID 0000.0001) %MON advcfl_wvel_max              =   9.7584325175732E-09
(PID.TID 0000.0001) %MON advcfl_W_hf_max              =   0.0000000000000E+00
(PID.TID 0000.0001) %MON pe_b_mean                    =   3.7654244130508E-06
(PID.TID 0000.0001) %MON ke_max                       =   4.6234942083457E-03
(PID.TID 0000.0001) %MON ke_mean                      =   6.2057543617182E-04
(PID.TID 0000.0001) %MON ke_vol                       =   6.8893493896486E+15
(PID.TID 0000.0001) %MON vort_r_min                   =  -9.8146278739370E-07
(PID.TID 0000.0001) %MON vort_r_max                   =   2.1151186621477E-06
(PID.TID 0000.0001) %MON vort_a_mean                  =   1.0600000000000E-04
(PID.TID 0000.0001) %MON vort_a_sd                    =   3.5409992598385E-06
(PID.TID 0000.0001) %MON vort_p_mean                  =   1.1652272308690E-04
(PID.TID 0000.0001) %MON vort_p_sd                    =   4.1769921911501E-05
(PID.TID 0000.0001) %MON surfExpan_theta_mean         =  -1.2431024111316E-20
(PID.TID 0000.0001) %MON surfExpan_salt_mean          =  -1.8637378060602E-20
(PID.TID 0000.0001) // =======================================================
(PID.TID 0000.0001) // End MONITOR dynamic field statistics
(PID.TID 0000.0001) // =======================================================
 cg2d: Sum(rhs),rhsMax =  -1.40995106501739E-03  1.39229402176738E-01
 cg2d: Sum(rhs),rhsMax =  -1.41027725018586E-03  1.39252519002275E-01
 cg2d: Sum(rhs),rhsMax =  -1.41060327561363E-03  1.39275629820081E-01
 cg2d: Sum(rhs),rhsMax =  -1.41092914209580E-03  1.39298734614504E-01
 cg2d: Sum(rhs),rhsMax =  -1.41125485131279E-03  1.39321833369899E-01
 cg2d: Sum(rhs),rhsMax =  -1.41158040478353E-03  1.39344926070625E-01
 cg2d: Sum(rhs),rhsMax =  -1.41190580396562E-03  1.39368012701056E-01
 cg2d: Sum(rhs),rhsMax =  -1.41223105025486E-03  1.39391093245569E-01
 cg2d: Sum(rhs),rhsMax =  -1.41255614492644E-03  1.39414167688548E-01
 cg2d: Sum(rhs),rhsMax =  -1.41288109007984E-03  1.39437236014391E-01
 cg2d: Sum(rhs),rhsMax =  -1.41320588626999E-03  1.39460298207501E-01
 cg2d: Sum(rhs),rhsMax =  -1.41353053544750E-03  1.39483354252293E-01
 cg2d: Sum(rhs),rhsMax =  -1.41385503923111E-03  1.39506404133183E-01
 cg2d: Sum(rhs),rhsMax =  -1.41417823891541E-03  1.39529562241719E-01
 cg2d: Sum(rhs),rhsMax =  -1.41449836315937E-03  1.39553003514794E-01
 cg2d: Sum(rhs),rhsMax =  -1.41481833934741E-03  1.39576439198100E-01
 cg2d: Sum(rhs),rhsMax =  -1.41513816904210E-03  1.39599869275338E-01
 cg2d: Sum(rhs),rhsMax =  -1.41545785362272E-03  1.39623293730225E-01
 cg2d: Sum(rhs),rhsMax =  -1.41577739427242E-03  1.39646712546480E-01
 cg2d: Sum(rhs),rhsMax =  -1.41609679265380E-03  1.39670125707829E-01
 cg2d: Sum(rhs),rhsMax =  -1.41641605014632E-03  1.39693533198009E-01
 cg2d: Sum(rhs),rhsMax =  -1.41673516857067E-03  1.39716935000761E-01
 cg2d: Sum(rhs),rhsMax =  -1.41705414861408E-03  1.39740331099837E-01
 cg2d: Sum(rhs),rhsMax =  -1.41737299210118E-03  1.39763721478996E-01
 cg2d: Sum(rhs),rhsMax =  -1.41769170036183E-03  1.39787106122000E-01
 cg2d: Sum(rhs),rhsMax =  -1.41801027462038E-03  1.39810485012626E-01
 cg2d: Sum(rhs),rhsMax =  -1.41832871678963E-03  1.39833858134655E-01
 cg2d: Sum(rhs),rhsMax =  -1.41864702752536E-03  1.39857225471873E-01
 cg2d: Sum(rhs),rhsMax =  -1.41896520875957E-03  1.39880587008080E-01
 cg2d: Sum(rhs),rhsMax =  -1.41928326136132E-03  1.39903942727084E-01
 cg2d: Sum(rhs),rhsMax =  -1.41960118700658E-03  1.39927292612692E-01
 cg2d: Sum(rhs),rhsMax =  -1.41991898649273E-03  1.39950636648728E-01
 cg2d: Sum(rhs),rhsMax =  -1.42023666170127E-03  1.39973974819021E-01
 cg2d: Sum(rhs),rhsMax =  -1.42055421360926E-03  1.39997307107408E-01
 cg2d: Sum(rhs),rhsMax =  -1.42087164350716E-03  1.40020633497733E-01
 cg2d: Sum(rhs),rhsMax =  -1.42118895263614E-03  1.40043953973851E-01
 cg2d: Sum(rhs),rhsMax =  -1.42150614209278E-03  1.40067268519623E-01
 cg2d: Sum(rhs),rhsMax =  -1.42182321353355E-03  1.40090577118920E-01
 cg2d: Sum(rhs),rhsMax =  -1.42214016772058E-03  1.40113879755617E-01
 cg2d: Sum(rhs),rhsMax =  -1.42245700607864E-03  1.40137176413604E-01
 cg2d: Sum(rhs),rhsMax =  -1.42277372982636E-03  1.40160467076773E-01
 cg2d: Sum(rhs),rhsMax =  -1.42309033958362E-03  1.40183751729032E-01
 cg2d: Sum(rhs),rhsMax =  -1.42340683707890E-03  1.40207030354286E-01
 cg2d: Sum(rhs),rhsMax =  -1.42372322298693E-03  1.40230302936459E-01
 cg2d: Sum(rhs),rhsMax =  -1.42403949881670E-03  1.40253569459478E-01
 cg2d: Sum(rhs),rhsMax =  -1.42435566543617E-03  1.40276829907284E-01
 cg2d: Sum(rhs),rhsMax =  -1.42467172360621E-03  1.40300084263819E-01
 cg2d: Sum(rhs),rhsMax =  -1.42498767464112E-03  1.40323332513037E-01
 cg2d: Sum(rhs),rhsMax =  -1.42530351977753E-03  1.40346574638904E-01
 cg2d: Sum(rhs),rhsMax =  -1.42561925933015E-03  1.40369810625388E-01
 cg2d: Sum(rhs),rhsMax =  -1.42593489476374E-03  1.40393040456475E-01
 cg2d: Sum(rhs),rhsMax =  -1.42625042699202E-03  1.40416264116152E-01
 cg2d: Sum(rhs),rhsMax =  -1.42656585645319E-03  1.40439481588414E-01
 cg2d: Sum(rhs),rhsMax =  -1.42688118468599E-03  1.40462692857271E-01
 cg2d: Sum(rhs),rhsMax =  -1.42719641230478E-03  1.40485897906739E-01
 cg2d: Sum(rhs),rhsMax =  -1.42751154016433E-03  1.40509096720841E-01
 cg2d: Sum(rhs),rhsMax =  -1.42782656854157E-03  1.40532289283613E-01
 cg2d: Sum(rhs),rhsMax =  -1.42814149924317E-03  1.40555475579099E-01
 cg2d: Sum(rhs),rhsMax =  -1.42845633202529E-03  1.40578655591348E-01
 cg2d: Sum(rhs),rhsMax =  -1.42877106848346E-03  1.40601829304423E-01
 cg2d: Sum(rhs),rhsMax =  -1.42908570888557E-03  1.40624996702394E-01
 cg2d: Sum(rhs),rhsMax =  -1.42940025379448E-03  1.40648157769340E-01
 cg2d: Sum(rhs),rhsMax =  -1.42971470426742E-03  1.40671312489349E-01
 cg2d: Sum(rhs),rhsMax =  -1.43002906075841E-03  1.40694460846519E-01
 cg2d: Sum(rhs),rhsMax =  -1.43034332369825E-03  1.40717602824958E-01
 cg2d: Sum(rhs),rhsMax =  -1.43065749368624E-03  1.40740738408783E-01
 cg2d: Sum(rhs),rhsMax =  -1.43097157180029E-03  1.40763867582120E-01
 cg2d: Sum(rhs),rhsMax =  -1.43128555836881E-03  1.40786990329102E-01
 cg2d: Sum(rhs),rhsMax =  -1.43159945336106E-03  1.40810106633875E-01
 cg2d: Sum(rhs),rhsMax =  -1.43191325784843E-03  1.40833216480595E-01
 cg2d: Sum(rhs),rhsMax =  -1.43222697199345E-03  1.40856319853424E-01
 cg2d: Sum(rhs),rhsMax =  -1.43254059644918E-03  1.40879416736536E-01
(PID.TID 0000.0001)      cg2d_init_res =   1.77892616724776E-03
(PID.TID 0000.0001)      cg2d_iters(min,last) =      -1      84
(PID.TID 0000.0001)      cg2d_last_res =   9.27591574228481E-08
(PID.TID 0000.0001) // =======================================================
(PID.TID 0000.0001) // Begin MONITOR dynamic field statistics
(PID.TID 0000.0001) // =======================================================
(PID.TID 0000.0001) %MON time_tsnumber                =                  5544
(PID.TID 0000.0001) %MON time_secondsf                =   6.6528000000000E+06
(PID.TID 0000.0001) %MON dynstat_eta_max              =   1.4373775730977E-01
(PID.TID 0000.0001) %MON dynstat_eta_min              =  -6.1235155705039E-02
(PID.TID 0000.0001) %MON dynstat_eta_mean             =   1.0089464456469E-06
(PID.TID 0000.0001) %MON dynstat_eta_sd               =   6.1187698131409E-02
(PID.TID 0000.0001) %MON dynstat_eta_del2             =   2.0439787905611E-05
(PID.TID 0000.0001) %MON dynstat_uvel_max             =   9.7344233711204E-02
(PID.TID 0000.0001) %MON dynstat_uvel_min             =  -5.0321979921993E-02
(PID.TID 0000.0001) %MON dynstat_uvel_mean            =  -6.3536561853658E-08
(PID.TID 0000.0001) %MON dynstat_uvel_sd              =   2.6589298510894E-02
(PID.TID 0000.0001) %MON dynstat_uvel_del2            =   4.7611615087011E-05
(PID.TID 0000.0001) %MON dynstat_vvel_max             =   8.7982957074016E-02
(PID.TID 0000.0001) %MON dynstat_vvel_min             =  -6.4376608861507E-02
(PID.TID 0000.0001) %MON dynstat_vvel_mean            =   2.2911020733998E-07
(PID.TID 0000.0001) %MON dynstat_vvel_sd              =   2.4074088583309E-02
(PID.TID 0000.0001) %MON dynstat_vvel_del2            =   4.8423062693072E-05
(PID.TID 0000.0001) %MON dynstat_wvel_max             =   2.0288913054392E-08
(PID.TID 0000.0001) %MON dynstat_wvel_min             =  -1.4020883962512E-08
(PID.TID 0000.0001) %MON dynstat_wvel_mean            =   1.8501748400013E-21
(PID.TID 0000.0001) %MON dynstat_wvel_sd              =   7.6968216089628E-09
(PID.TID 0000.0001) %MON dynstat_wvel_del2            =   4.0273519093902E-12
(PID.TID 0000.0001) %MON dynstat_theta_max            =   2.0000000000000E+01
(PID.TID 0000.0001) %MON dynstat_theta_min            =   2.0000000000000E+01
(PID.TID 0000.0001) %MON dynstat_theta_mean           =   2.0000000000000E+01
(PID.TID 0000.0001) %MON dynstat_theta_sd             =   3.8014036363165E-13
(PID.TID 0000.0001) %MON dynstat_theta_del2           =   0.0000000000000E+00
(PID.TID 0000.0001) %MON dynstat_salt_max             =   3.0000000000000E+01
(PID.TID 0000.0001) %MON dynstat_salt_min             =   3.0000000000000E+01
(PID.TID 0000.0001) %MON dynstat_salt_mean            =   2.9999999999999E+01
(PID.TID 0000.0001) %MON dynstat_salt_sd              =   5.5777604757167E-13
(PID.TID 0000.0001) %MON dynstat_salt_del2            =   0.0000000000000E+00
(PID.TID 0000.0001) %MON trAdv_CFL_u_max              =   5.8370412693665E-03
(PID.TID 0000.0001) %MON trAdv_CFL_v_max              =   5.2785570370116E-03
(PID.TID 0000.0001) %MON trAdv_CFL_w_max              =   5.3478782968535E-09
(PID.TID 0000.0001) %MON advcfl_uvel_max              =   5.8406540226723E-03
(PID.TID 0000.0001) %MON advcfl_vvel_max              =   5.2789774244410E-03
(PID.TID 0000.0001) %MON advcfl_wvel_max              =   9.7386782661080E-09
(PID.TID 0000.0001) %MON advcfl_W_hf_max              =   0.0000000000000E+00
(PID.TID 0000.0001) %MON pe_b_mean                    =   3.8384114354124E-06
(PID.TID 0000.0001) %MON ke_max                       =   4.7322106476757E-03
(PID.TID 0000.0001) %MON ke_mean                      =   6.3144730792486E-04
(PID.TID 0000.0001) %MON ke_vol                       =   6.8893493896486E+15
(PID.TID 0000.0001) %MON vort_r_min                   =  -9.9009655561710E-07
(PID.TID 0000.0001) %MON vort_r_max                   =   2.1414079195678E-06
(PID.TID 0000.0001) %MON vort_a_mean                  =   1.0600000000000E-04
(PID.TID 0000.0001) %MON vort_a_sd                    =   3.5413086883208E-06
(PID.TID 0000.0001) %MON vort_p_mean                  =   1.1652272308690E-04
(PID.TID 0000.0001) %MON vort_p_sd                    =   4.1770381025765E-05
(PID.TID 0000.0001) %MON surfExpan_theta_mean         =   3.7057485475284E-20
(PID.TID 0000.0001) %MON surfExpan_salt_mean          =   5.5588437556745E-20
(PID.TID 0000.0001) // =======================================================
(PID.TID 0000.0001) // End MONITOR dynamic field statistics
(PID.TID 0000.0001) // =======================================================
 cg2d: Sum(rhs),rhsMax =  -1.43285413139095E-03  1.40902507114113E-01
 cg2d: Sum(rhs),rhsMax =  -1.43316757738511E-03  1.40925590970348E-01
 cg2d: Sum(rhs),rhsMax =  -1.43348093463320E-03  1.40948668289444E-01
 cg2d: Sum(rhs),rhsMax =  -1.43379420353555E-03  1.40971739055613E-01
 cg2d: Sum(rhs),rhsMax =  -1.43410738455906E-03  1.40994803253074E-01
 cg2d: Sum(rhs),rhsMax =  -1.43442047778450E-03  1.41017860866061E-01
 cg2d: Sum(rhs),rhsMax =  -1.43473348354304E-03  1.41040911878818E-01
 cg2d: Sum(rhs),rhsMax =  -1.43504640208414E-03  1.41063956275592E-01
 cg2d: Sum(rhs),rhsMax =  -1.43535923353660E-03  1.41086994040644E-01
 cg2d: Sum(rhs),rhsMax =  -1.43567197784193E-03  1.41110025158248E-01
 cg2d: Sum(rhs),rhsMax =  -1.43598463555246E-03  1.41133049612683E-01
 cg2d: Sum(rhs),rhsMax =  -1.43629720640922E-03  1.41156067388241E-01
 cg2d: Sum(rhs),rhsMax =  -1.43660969092949E-03  1.41179078469224E-01
 cg2d: Sum(rhs),rhsMax =  -1.43692208859146E-03  1.41202082839941E-01
 cg2d: Sum(rhs),rhsMax =  -1.43723439989204E-03  1.41225080484715E-01
 cg2d: Sum(rhs),rhsMax =  -1.43754662483429E-03  1.41248071387877E-01
 cg2d: Sum(rhs),rhsMax =  -1.43785876324194E-03  1.41271055533768E-01
 cg2d: Sum(rhs),rhsMax =  -1.43817081484605E-03  1.41294032906744E-01
 cg2d: Sum(rhs),rhsMax =  -1.43848278002851E-03  1.41317003491161E-01
 cg2d: Sum(rhs),rhsMax =  -1.43879465866979E-03  1.41339967271397E-01
 cg2d: Sum(rhs),rhsMax =  -1.43910645037285E-03  1.41362924231832E-01
 cg2d: Sum(rhs),rhsMax =  -1.43941815516971E-03  1.41385874356862E-01
 cg2d: Sum(rhs),rhsMax =  -1.43972977292858E-03  1.41408817630887E-01
 cg2d: Sum(rhs),rhsMax =  -1.44004130322480E-03  1.41431754038325E-01
 cg2d: Sum(rhs),rhsMax =  -1.44035274590279E-03  1.41454683563598E-01
 cg2d: Sum(rhs),rhsMax =  -1.44066410097583E-03  1.41477606191143E-01
 cg2d: Sum(rhs),rhsMax =  -1.44097536828435E-03  1.41500521905407E-01
 cg2d: Sum(rhs),rhsMax =  -1.44128654689228E-03  1.41523430690845E-01
 cg2d: Sum(rhs),rhsMax =  -1.44159763694205E-03  1.41546332531926E-01
 cg2d: Sum(rhs),rhsMax =  -1.44190863821366E-03  1.41569227413123E-01
 cg2d: Sum(rhs),rhsMax =  -1.44221954990722E-03  1.41592115318932E-01
 cg2d: Sum(rhs),rhsMax =  -1.44253037208902E-03  1.41614996233847E-01
 cg2d: Sum(rhs),rhsMax =  -1.44284110386683E-03  1.41637870142379E-01
 cg2d: Sum(rhs),rhsMax =  -1.44315174531708E-03  1.41660737029052E-01
 cg2d: Sum(rhs),rhsMax =  -1.44346229587797E-03  1.41683596878394E-01
 cg2d: Sum(rhs),rhsMax =  -1.44377275481057E-03  1.41706449674954E-01
 cg2d: Sum(rhs),rhsMax =  -1.44408312172033E-03  1.41729295403277E-01
 cg2d: Sum(rhs),rhsMax =  -1.44439339610191E-03  1.41752134047937E-01
 cg2d: Sum(rhs),rhsMax =  -1.44470357768228E-03  1.41774965593505E-01
 cg2d: Sum(rhs),rhsMax =  -1.44501366550635E-03  1.41797790024567E-01
 cg2d: Sum(rhs),rhsMax =  -1.44532365920607E-03  1.41820607325722E-01
 cg2d: Sum(rhs),rhsMax =  -1.44563355821233E-03  1.41843417481582E-01
 cg2d: Sum(rhs),rhsMax =  -1.44594336178227E-03  1.41866220476767E-01
 cg2d: Sum(rhs),rhsMax =  -1.44625306908858E-03  1.41889016295905E-01
 cg2d: Sum(rhs),rhsMax =  -1.44656268018085E-03  1.41911804923640E-01
 cg2d: Sum(rhs),rhsMax =  -1.44687219345421E-03  1.41934586344630E-01
 cg2d: Sum(rhs),rhsMax =  -1.44718160902959E-03  1.41957360543535E-01
 cg2d: Sum(rhs),rhsMax =  -1.44749092547326E-03  1.41980127505037E-01
 cg2d: Sum(rhs),rhsMax =  -1.44780014261947E-03  1.42002887213821E-01
 cg2d: Sum(rhs),rhsMax =  -1.44810925915242E-03  1.42025639654587E-01
 cg2d: Sum(rhs),rhsMax =  -1.44841827487705E-03  1.42048384812047E-01
 cg2d: Sum(rhs),rhsMax =  -1.44872718878406E-03  1.42071122670923E-01
 cg2d: Sum(rhs),rhsMax =  -1.44903599996533E-03  1.42093853215951E-01
 cg2d: Sum(rhs),rhsMax =  -1.44934470769835E-03  1.42116576431873E-01
 cg2d: Sum(rhs),rhsMax =  -1.44965331119355E-03  1.42139292303450E-01
 cg2d: Sum(rhs),rhsMax =  -1.44996180938651E-03  1.42162000815451E-01
 cg2d: Sum(rhs),rhsMax =  -1.45027020167736E-03  1.42184701952655E-01
 cg2d: Sum(rhs),rhsMax =  -1.45057848706925E-03  1.42207395699852E-01
 cg2d: Sum(rhs),rhsMax =  -1.45088666440391E-03  1.42230082041853E-01
 cg2d: Sum(rhs),rhsMax =  -1.45119473314371E-03  1.42252760963470E-01
 cg2d: Sum(rhs),rhsMax =  -1.45150269212251E-03  1.42275432449531E-01
 cg2d: Sum(rhs),rhsMax =  -1.45181054063496E-03  1.42298096484876E-01
 cg2d: Sum(rhs),rhsMax =  -1.45211827747283E-03  1.42320753054355E-01
 cg2d: Sum(rhs),rhsMax =  -1.45242590184056E-03  1.42343402142835E-01
 cg2d: Sum(rhs),rhsMax =  -1.45273341229430E-03  1.42366043735190E-01
 cg2d: Sum(rhs),rhsMax =  -1.45304080855758E-03  1.42388677816306E-01
 cg2d: Sum(rhs),rhsMax =  -1.45334808870937E-03  1.42411304371086E-01
 cg2d: Sum(rhs),rhsMax =  -1.45365525263766E-03  1.42433923384437E-01
 cg2d: Sum(rhs),rhsMax =  -1.45396229874243E-03  1.42456534841288E-01
 cg2d: Sum(rhs),rhsMax =  -1.45426922641383E-03  1.42479138726571E-01
 cg2d: Sum(rhs),rhsMax =  -1.45457603406209E-03  1.42501735025238E-01
 cg2d: Sum(rhs),rhsMax =  -1.45488272104571E-03  1.42524323722244E-01
(PID.TID 0000.0001)      cg2d_init_res =   1.74472123248382E-03
(PID.TID 0000.0001)      cg2d_iters(min,last) =      -1      84
(PID.TID 0000.0001)      cg2d_last_res =   9.16614645912838E-08
(PID.TID 0000.0001) // =======================================================
(PID.TID 0000.0001) // Begin MONITOR dynamic field statistics
(PID.TID 0000.0001) // =======================================================
(PID.TID 0000.0001) %MON time_tsnumber                =                  5616
(PID.TID 0000.0001) %MON time_secondsf                =   6.7392000000000E+06
(PID.TID 0000.0001) %MON dynstat_eta_max              =   1.4522243497866E-01
(PID.TID 0000.0001) %MON dynstat_eta_min              =  -6.1587130999490E-02
(PID.TID 0000.0001) %MON dynstat_eta_mean             =   1.0366321981387E-06
(PID.TID 0000.0001) %MON dynstat_eta_sd               =   6.1768441696185E-02
(PID.TID 0000.0001) %MON dynstat_eta_del2             =   2.0591557687042E-05
(PID.TID 0000.0001) %MON dynstat_uvel_max             =   9.8453202802774E-02
(PID.TID 0000.0001) %MON dynstat_uvel_min             =  -5.1076314334709E-02
(PID.TID 0000.0001) %MON dynstat_uvel_mean            =  -5.6147186869117E-08
(PID.TID 0000.0001) %MON dynstat_uvel_sd              =   2.6838597007084E-02
(PID.TID 0000.0001) %MON dynstat_uvel_del2            =   4.8187210219130E-05
(PID.TID 0000.0001) %MON dynstat_vvel_max             =   8.8411451923584E-02
(PID.TID 0000.0001) %MON dynstat_vvel_min             =  -6.4967505546114E-02
(PID.TID 0000.0001) %MON dynstat_vvel_mean            =   2.2920942858553E-07
(PID.TID 0000.0001) %MON dynstat_vvel_sd              =   2.4256092826433E-02
(PID.TID 0000.0001) %MON dynstat_vvel_del2            =   4.8366276705965E-05
(PID.TID 0000.0001) %MON dynstat_wvel_max             =   2.0259991404018E-08
(PID.TID 0000.0001) %MON dynstat_wvel_min             =  -1.4115037478041E-08
(PID.TID 0000.0001) %MON dynstat_wvel_mean            =   4.9514335387357E-21
(PID.TID 0000.0001) %MON dynstat_wvel_sd              =   7.6554174516025E-09
(PID.TID 0000.0001) %MON dynstat_wvel_del2            =   4.0094451078428E-12
(PID.TID 0000.0001) %MON dynstat_theta_max            =   2.0000000000000E+01
(PID.TID 0000.0001) %MON dynstat_theta_min            =   2.0000000000000E+01
(PID.TID 0000.0001) %MON dynstat_theta_mean           =   2.0000000000000E+01
(PID.TID 0000.0001) %MON dynstat_theta_sd             =   3.8014036363165E-13
(PID.TID 0000.0001) %MON dynstat_theta_del2           =   0.0000000000000E+00
(PID.TID 0000.0001) %MON dynstat_salt_max             =   3.0000000000000E+01
(PID.TID 0000.0001) %MON dynstat_salt_min             =   3.0000000000000E+01
(PID.TID 0000.0001) %MON dynstat_salt_mean            =   2.9999999999999E+01
(PID.TID 0000.0001) %MON dynstat_salt_sd              =   5.5777604757167E-13
(PID.TID 0000.0001) %MON dynstat_salt_del2            =   0.0000000000000E+00
(PID.TID 0000.0001) %MON trAdv_CFL_u_max              =   5.9035585480687E-03
(PID.TID 0000.0001) %MON trAdv_CFL_v_max              =   5.3043919593057E-03
(PID.TID 0000.0001) %MON trAdv_CFL_w_max              =   5.3345547500242E-09
(PID.TID 0000.0001) %MON advcfl_uvel_max              =   5.9071921681665E-03
(PID.TID 0000.0001) %MON advcfl_vvel_max              =   5.3046871154151E-03
(PID.TID 0000.0001) %MON advcfl_wvel_max              =   9.7247958739288E-09
(PID.TID 0000.0001) %MON advcfl_W_hf_max              =   0.0000000000000E+00
(PID.TID 0000.0001) %MON pe_b_mean                    =   3.9116193305172E-06
(PID.TID 0000.0001) %MON ke_max                       =   4.8414198369966E-03
(PID.TID 0000.0001) %MON ke_mean                      =   6.4230186456706E-04
(PID.TID 0000.0001) %MON ke_vol                       =   6.8893493896486E+15
(PID.TID 0000.0001) %MON vort_r_min                   =  -9.9832163083158E-07
(PID.TID 0000.0001) %MON vort_r_max                   =   2.1676535541235E-06
(PID.TID 0000.0001) %MON vort_a_mean                  =   1.0600000000000E-04
(PID.TID 0000.0001) %MON vort_a_sd                    =   3.5416139493738E-06
(PID.TID 0000.0001) %MON vort_p_mean                  =   1.1652272308690E-04
(PID.TID 0000.0001) %MON vort_p_sd                    =   4.1770821440104E-05
(PID.TID 0000.0001) %MON surfExpan_theta_mean         =   9.9065447203530E-20
(PID.TID 0000.0001) %MON surfExpan_salt_mean          =   1.4859564443112E-19
(PID.TID 0000.0001) // =======================================================
(PID.TID 0000.0001) // End MONITOR dynamic field statistics
(PID.TID 0000.0001) // =======================================================
 cg2d: Sum(rhs),rhsMax =  -1.45518928604067E-03  1.42546904802567E-01
 cg2d: Sum(rhs),rhsMax =  -1.45549572807582E-03  1.42569478251190E-01
 cg2d: Sum(rhs),rhsMax =  -1.45580204595068E-03  1.42592044053109E-01
 cg2d: Sum(rhs),rhsMax =  -1.45610823850659E-03  1.42614602193336E-01
 cg2d: Sum(rhs),rhsMax =  -1.45641430465520E-03  1.42637152656891E-01
 cg2d: Sum(rhs),rhsMax =  -1.45672024335854E-03  1.42659695428809E-01
 cg2d: Sum(rhs),rhsMax =  -1.45702605372887E-03  1.42682230494137E-01
 cg2d: Sum(rhs),rhsMax =  -1.45733173380192E-03  1.42704757837936E-01
 cg2d: Sum(rhs),rhsMax =  -1.45763728321573E-03  1.42727277445275E-01
 cg2d: Sum(rhs),rhsMax =  -1.45794270040359E-03  1.42749789301243E-01
 cg2d: Sum(rhs),rhsMax =  -1.45824798413200E-03  1.42772293390932E-01
 cg2d: Sum(rhs),rhsMax =  -1.45855313377519E-03  1.42794789699456E-01
 cg2d: Sum(rhs),rhsMax =  -1.45885814761273E-03  1.42817278211937E-01
 cg2d: Sum(rhs),rhsMax =  -1.45916302441175E-03  1.42839758913507E-01
 cg2d: Sum(rhs),rhsMax =  -1.45946776325915E-03  1.42862231789318E-01
 cg2d: Sum(rhs),rhsMax =  -1.45977236289435E-03  1.42884696824529E-01
 cg2d: Sum(rhs),rhsMax =  -1.46007682178177E-03  1.42907154004314E-01
 cg2d: Sum(rhs),rhsMax =  -1.46038113903454E-03  1.42929603313859E-01
 cg2d: Sum(rhs),rhsMax =  -1.46068531342024E-03  1.42952044738364E-01
 cg2d: Sum(rhs),rhsMax =  -1.46098934330849E-03  1.42974478263041E-01
 cg2d: Sum(rhs),rhsMax =  -1.46129322823237E-03  1.42996903873116E-01
 cg2d: Sum(rhs),rhsMax =  -1.46159696636396E-03  1.43019321553826E-01
 cg2d: Sum(rhs),rhsMax =  -1.46190055634370E-03  1.43041731290421E-01
 cg2d: Sum(rhs),rhsMax =  -1.46220399780541E-03  1.43064133068169E-01
 cg2d: Sum(rhs),rhsMax =  -1.46250728880726E-03  1.43086526872347E-01
 cg2d: Sum(rhs),rhsMax =  -1.46281042755881E-03  1.43108912688244E-01
 cg2d: Sum(rhs),rhsMax =  -1.46311341410350E-03  1.43131290501162E-01
 cg2d: Sum(rhs),rhsMax =  -1.46341624624252E-03  1.43153660296421E-01
 cg2d: Sum(rhs),rhsMax =  -1.46371892299631E-03  1.43176022059352E-01
 cg2d: Sum(rhs),rhsMax =  -1.46402144316298E-03  1.43198375775296E-01
 cg2d: Sum(rhs),rhsMax =  -1.46432380520502E-03  1.43220721429610E-01
 cg2d: Sum(rhs),rhsMax =  -1.46477459769832E-03  1.43243058655270E-01
 cg2d: Sum(rhs),rhsMax =  -1.46522514204103E-03  1.43265388121188E-01
 cg2d: Sum(rhs),rhsMax =  -1.46567548482229E-03  1.43287709498438E-01
 cg2d: Sum(rhs),rhsMax =  -1.46612560571059E-03  1.43310022751985E-01
 cg2d: Sum(rhs),rhsMax =  -1.46657550425701E-03  1.43332327873757E-01
 cg2d: Sum(rhs),rhsMax =  -1.46702517971619E-03  1.43354624847330E-01
 cg2d: Sum(rhs),rhsMax =  -1.46747463123724E-03  1.43376913656700E-01
 cg2d: Sum(rhs),rhsMax =  -1.46792385753467E-03  1.43399194286965E-01
 cg2d: Sum(rhs),rhsMax =  -1.46837285765098E-03  1.43421466723875E-01
 cg2d: Sum(rhs),rhsMax =  -1.46882163005568E-03  1.43443730953329E-01
 cg2d: Sum(rhs),rhsMax =  -1.46927017321972E-03  1.43465986961096E-01
 cg2d: Sum(rhs),rhsMax =  -1.46971848586567E-03  1.43488234732764E-01
 cg2d: Sum(rhs),rhsMax =  -1.47016656687884E-03  1.43510474253810E-01
 cg2d: Sum(rhs),rhsMax =  -1.47061441481418E-03  1.43532705509690E-01
 cg2d: Sum(rhs),rhsMax =  -1.47106202860862E-03  1.43554928485901E-01
 cg2d: Sum(rhs),rhsMax =  -1.47150940695828E-03  1.43577143167992E-01
 cg2d: Sum(rhs),rhsMax =  -1.47195654830511E-03  1.43599349541549E-01
 cg2d: Sum(rhs),rhsMax =  -1.47240345177656E-03  1.43621547592191E-01
 cg2d: Sum(rhs),rhsMax =  -1.47285011592356E-03  1.43643737305550E-01
 cg2d: Sum(rhs),rhsMax =  -1.47329653904944E-03  1.43665918667264E-01
 cg2d: Sum(rhs),rhsMax =  -1.47374272046226E-03  1.43688091662976E-01
 cg2d: Sum(rhs),rhsMax =  -1.47418865871556E-03  1.43710256278342E-01
 cg2d: Sum(rhs),rhsMax =  -1.47463435244513E-03  1.43732412499034E-01
 cg2d: Sum(rhs),rhsMax =  -1.47507980076713E-03  1.43754560310738E-01
 cg2d: Sum(rhs),rhsMax =  -1.47552500189333E-03  1.43776699699157E-01
 cg2d: Sum(rhs),rhsMax =  -1.47596995479194E-03  1.43798830650008E-01
 cg2d: Sum(rhs),rhsMax =  -1.47641465810335E-03  1.43820953149017E-01
 cg2d: Sum(rhs),rhsMax =  -1.47685911082024E-03  1.43843067181928E-01
 cg2d: Sum(rhs),rhsMax =  -1.47730331149277E-03  1.43865172734494E-01
 cg2d: Sum(rhs),rhsMax =  -1.47774725850091E-03  1.43887269792488E-01
 cg2d: Sum(rhs),rhsMax =  -1.47819095120560E-03  1.43909358341691E-01
 cg2d: Sum(rhs),rhsMax =  -1.47863438804343E-03  1.43931438367908E-01
 cg2d: Sum(rhs),rhsMax =  -1.47907756796044E-03  1.43953509856952E-01
 cg2d: Sum(rhs),rhsMax =  -1.47952048964794E-03  1.43975572794653E-01
 cg2d: Sum(rhs),rhsMax =  -1.47996315185706E-03  1.43997627166856E-01
 cg2d: Sum(rhs),rhsMax =  -1.48040555312321E-03  1.44019672959420E-01
 cg2d: Sum(rhs),rhsMax =  -1.48084769251842E-03  1.44041710158218E-01
 cg2d: Sum(rhs),rhsMax =  -1.48128956846186E-03  1.44063738749137E-01
 cg2d: Sum(rhs),rhsMax =  -1.48173117986903E-03  1.44085758718077E-01
 cg2d: Sum(rhs),rhsMax =  -1.48217252586792E-03  1.44107770050954E-01
 cg2d: Sum(rhs),rhsMax =  -1.48261360479986E-03  1.44129772733700E-01
(PID.TID 0000.0001)      cg2d_init_res =   1.71139184330448E-03
(PID.TID 0000.0001)      cg2d_iters(min,last) =      -1      83
(PID.TID 0000.0001)      cg2d_last_res =   9.94711754609364E-08
(PID.TID 0000.0001) // =======================================================
(PID.TID 0000.0001) // Begin MONITOR dynamic field statistics
(PID.TID 0000.0001) // =======================================================
(PID.TID 0000.0001) %MON time_tsnumber                =                  5688
(PID.TID 0000.0001) %MON time_secondsf                =   6.8256000000000E+06
(PID.TID 0000.0001) %MON dynstat_eta_max              =   1.4669248799384E-01
(PID.TID 0000.0001) %MON dynstat_eta_min              =  -6.1929338935283E-02
(PID.TID 0000.0001) %MON dynstat_eta_mean             =   1.0683768517446E-06
(PID.TID 0000.0001) %MON dynstat_eta_sd               =   6.2345677329487E-02
(PID.TID 0000.0001) %MON dynstat_eta_del2             =   2.0742574423368E-05
(PID.TID 0000.0001) %MON dynstat_uvel_max             =   9.9548456178315E-02
(PID.TID 0000.0001) %MON dynstat_uvel_min             =  -5.1796351300965E-02
(PID.TID 0000.0001) %MON dynstat_uvel_mean            =  -4.9118838627160E-08
(PID.TID 0000.0001) %MON dynstat_uvel_sd              =   2.7085574001028E-02
(PID.TID 0000.0001) %MON dynstat_uvel_del2            =   4.8763754896291E-05
(PID.TID 0000.0001) %MON dynstat_vvel_max             =   8.8688762312679E-02
(PID.TID 0000.0001) %MON dynstat_vvel_min             =  -6.5540377976270E-02
(PID.TID 0000.0001) %MON dynstat_vvel_mean            =   2.2901227964021E-07
(PID.TID 0000.0001) %MON dynstat_vvel_sd              =   2.4435935360608E-02
(PID.TID 0000.0001) %MON dynstat_vvel_del2            =   4.8285513661875E-05
(PID.TID 0000.0001) %MON dynstat_wvel_max             =   2.0253765608650E-08
(PID.TID 0000.0001) %MON dynstat_wvel_min             =  -1.4100873395801E-08
(PID.TID 0000.0001) %MON dynstat_wvel_mean            =  -2.6821289288313E-22
(PID.TID 0000.0001) %MON dynstat_wvel_sd              =   7.6166892369719E-09
(PID.TID 0000.0001) %MON dynstat_wvel_del2            =   3.9896538168350E-12
(PID.TID 0000.0001) %MON dynstat_theta_max            =   2.0000000000000E+01
(PID.TID 0000.0001) %MON dynstat_theta_min            =   2.0000000000000E+01
(PID.TID 0000.0001) %MON dynstat_theta_mean           =   2.0000000000000E+01
(PID.TID 0000.0001) %MON dynstat_theta_sd             =   3.8014036363165E-13
(PID.TID 0000.0001) %MON dynstat_theta_del2           =   0.0000000000000E+00
(PID.TID 0000.0001) %MON dynstat_salt_max             =   3.0000000000000E+01
(PID.TID 0000.0001) %MON dynstat_salt_min             =   3.0000000000000E+01
(PID.TID 0000.0001) %MON dynstat_salt_mean            =   2.9999999999999E+01
(PID.TID 0000.0001) %MON dynstat_salt_sd              =   5.5777604757167E-13
(PID.TID 0000.0001) %MON dynstat_salt_del2            =   0.0000000000000E+00
(PID.TID 0000.0001) %MON trAdv_CFL_u_max              =   5.9692566283106E-03
(PID.TID 0000.0001) %MON trAdv_CFL_v_max              =   5.3211569937190E-03
(PID.TID 0000.0001) %MON trAdv_CFL_w_max              =   5.3236513726096E-09
(PID.TID 0000.0001) %MON advcfl_uvel_max              =   5.9729073706989E-03
(PID.TID 0000.0001) %MON advcfl_vvel_max              =   5.3213257387608E-03
(PID.TID 0000.0001) %MON advcfl_wvel_max              =   9.7218074921519E-09
(PID.TID 0000.0001) %MON advcfl_W_hf_max              =   0.0000000000000E+00
(PID.TID 0000.0001) %MON pe_b_mean                    =   3.9850703140507E-06
(PID.TID 0000.0001) %MON ke_max                       =   4.9506943762339E-03
(PID.TID 0000.0001) %MON ke_mean                      =   6.5313636458435E-04
(PID.TID 0000.0001) %MON ke_vol                       =   6.8893493896486E+15
(PID.TID 0000.0001) %MON vort_r_min                   =  -1.0065908028822E-06
(PID.TID 0000.0001) %MON vort_r_max                   =   2.1937617499313E-06
(PID.TID 0000.0001) %MON vort_a_mean                  =   1.0600000000000E-04
(PID.TID 0000.0001) %MON vort_a_sd                    =   3.5419147321607E-06
(PID.TID 0000.0001) %MON vort_p_mean                  =   1.1652272308690E-04
(PID.TID 0000.0001) %MON vort_p_sd                    =   4.1771243882308E-05
(PID.TID 0000.0001) %MON surfExpan_theta_mean         =  -5.3148596634855E-21
(PID.TID 0000.0001) %MON surfExpan_salt_mean          =  -7.9631313888563E-21
(PID.TID 0000.0001) // =======================================================
(PID.TID 0000.0001) // End MONITOR dynamic field statistics
(PID.TID 0000.0001) // =======================================================
 cg2d: Sum(rhs),rhsMax =  -1.48305441591687E-03  1.44151766752261E-01
 cg2d: Sum(rhs),rhsMax =  -1.48349495756539E-03  1.44173752092596E-01
 cg2d: Sum(rhs),rhsMax =  -1.48393522855186E-03  1.44195728740684E-01
 cg2d: Sum(rhs),rhsMax =  -1.48437522793754E-03  1.44217696682509E-01
 cg2d: Sum(rhs),rhsMax =  -1.48481495452650E-03  1.44239655904081E-01
 cg2d: Sum(rhs),rhsMax =  -1.48525440717046E-03  1.44261606391421E-01
 cg2d: Sum(rhs),rhsMax =  -1.48569358411268E-03  1.44283548130558E-01
 cg2d: Sum(rhs),rhsMax =  -1.48613248456547E-03  1.44305481107547E-01
 cg2d: Sum(rhs),rhsMax =  -1.48657110779109E-03  1.44327405308450E-01
 cg2d: Sum(rhs),rhsMax =  -1.48700945213342E-03  1.44349320719346E-01
 cg2d: Sum(rhs),rhsMax =  -1.48744751640260E-03  1.44371227326332E-01
 cg2d: Sum(rhs),rhsMax =  -1.48788529973683E-03  1.44393125115513E-01
 cg2d: Sum(rhs),rhsMax =  -1.48832280075263E-03  1.44415014073019E-01
 cg2d: Sum(rhs),rhsMax =  -1.48876001834322E-03  1.44436894184986E-01
 cg2d: Sum(rhs),rhsMax =  -1.48919695145257E-03  1.44458765437571E-01
 cg2d: Sum(rhs),rhsMax =  -1.48963359856731E-03  1.44480627816942E-01
 cg2d: Sum(rhs),rhsMax =  -1.49006995952566E-03  1.44502481309287E-01
 cg2d: Sum(rhs),rhsMax =  -1.49050603224231E-03  1.44524325900803E-01
 cg2d: Sum(rhs),rhsMax =  -1.49094181590865E-03  1.44546161577712E-01
 cg2d: Sum(rhs),rhsMax =  -1.49137730984389E-03  1.44567988326238E-01
 cg2d: Sum(rhs),rhsMax =  -1.49181251223439E-03  1.44589806132630E-01
 cg2d: Sum(rhs),rhsMax =  -1.49224742238822E-03  1.44611614983153E-01
 cg2d: Sum(rhs),rhsMax =  -1.49268203926742E-03  1.44633414864078E-01
 cg2d: Sum(rhs),rhsMax =  -1.49311636185511E-03  1.44655205761703E-01
 cg2d: Sum(rhs),rhsMax =  -1.49355038865899E-03  1.44676987662333E-01
 cg2d: Sum(rhs),rhsMax =  -1.49398411907357E-03  1.44698760552293E-01
 cg2d: Sum(rhs),rhsMax =  -1.49441755162560E-03  1.44720524417921E-01
 cg2d: Sum(rhs),rhsMax =  -1.49485068588964E-03  1.44742279245572E-01
 cg2d: Sum(rhs),rhsMax =  -1.49528352025731E-03  1.44764025021617E-01
 cg2d: Sum(rhs),rhsMax =  -1.49571605391751E-03  1.44785761732440E-01
 cg2d: Sum(rhs),rhsMax =  -1.49614828603152E-03  1.44807489364444E-01
 cg2d: Sum(rhs),rhsMax =  -1.49658021513348E-03  1.44829207904045E-01
 cg2d: Sum(rhs),rhsMax =  -1.49701184069018E-03  1.44850917337676E-01
 cg2d: Sum(rhs),rhsMax =  -1.49744316165179E-03  1.44872617651787E-01
 cg2d: Sum(rhs),rhsMax =  -1.49787417676772E-03  1.44894308832841E-01
 cg2d: Sum(rhs),rhsMax =  -1.49830488521649E-03  1.44915990867316E-01
 cg2d: Sum(rhs),rhsMax =  -1.49873528582036E-03  1.44937663741712E-01
 cg2d: Sum(rhs),rhsMax =  -1.49916537830829E-03  1.44959327442538E-01
 cg2d: Sum(rhs),rhsMax =  -1.49959516094808E-03  1.44980981956322E-01
 cg2d: Sum(rhs),rhsMax =  -1.50002463316746E-03  1.45002627269607E-01
 cg2d: Sum(rhs),rhsMax =  -1.50045379391878E-03  1.45024263368952E-01
 cg2d: Sum(rhs),rhsMax =  -1.50088264248854E-03  1.45045890240936E-01
 cg2d: Sum(rhs),rhsMax =  -1.50131117741328E-03  1.45067507872148E-01
 cg2d: Sum(rhs),rhsMax =  -1.50173939850922E-03  1.45089116249193E-01
 cg2d: Sum(rhs),rhsMax =  -1.50216730447388E-03  1.45110715358699E-01
 cg2d: Sum(rhs),rhsMax =  -1.50259489444408E-03  1.45132305187300E-01
 cg2d: Sum(rhs),rhsMax =  -1.50302216753789E-03  1.45153885721658E-01
 cg2d: Sum(rhs),rhsMax =  -1.50344912316495E-03  1.45175456948443E-01
 cg2d: Sum(rhs),rhsMax =  -1.50387576019984E-03  1.45197018854340E-01
 cg2d: Sum(rhs),rhsMax =  -1.50430207782260E-03  1.45218571426055E-01
 cg2d: Sum(rhs),rhsMax =  -1.50472807545627E-03  1.45240114650311E-01
 cg2d: Sum(rhs),rhsMax =  -1.50515375189673E-03  1.45261648513840E-01
 cg2d: Sum(rhs),rhsMax =  -1.50557910680906E-03  1.45283173003398E-01
 cg2d: Sum(rhs),rhsMax =  -1.50600413850705E-03  1.45304688105755E-01
 cg2d: Sum(rhs),rhsMax =  -1.50642884718570E-03  1.45326193807694E-01
 cg2d: Sum(rhs),rhsMax =  -1.50685323149335E-03  1.45347690096020E-01
 cg2d: Sum(rhs),rhsMax =  -1.50727729106152E-03  1.45369176957550E-01
 cg2d: Sum(rhs),rhsMax =  -1.50770102461270E-03  1.45390654379119E-01
 cg2d: Sum(rhs),rhsMax =  -1.50812443212068E-03  1.45412122347579E-01
 cg2d: Sum(rhs),rhsMax =  -1.50854751200316E-03  1.45433580849798E-01
 cg2d: Sum(rhs),rhsMax =  -1.50897026422315E-03  1.45455029872660E-01
 cg2d: Sum(rhs),rhsMax =  -1.50939268776566E-03  1.45476469403064E-01
 cg2d: Sum(rhs),rhsMax =  -1.50981478165544E-03  1.45497899427934E-01
 cg2d: Sum(rhs),rhsMax =  -1.51023654592823E-03  1.45519319934197E-01
 cg2d: Sum(rhs),rhsMax =  -1.51065797945172E-03  1.45540730908808E-01
 cg2d: Sum(rhs),rhsMax =  -1.51107908127416E-03  1.45562132338731E-01
 cg2d: Sum(rhs),rhsMax =  -1.51149985124586E-03  1.45583524210955E-01
 cg2d: Sum(rhs),rhsMax =  -1.51192028864873E-03  1.45604906512478E-01
 cg2d: Sum(rhs),rhsMax =  -1.51234039256708E-03  1.45626279230319E-01
 cg2d: Sum(rhs),rhsMax =  -1.51276016271065E-03  1.45647642351513E-01
 cg2d: Sum(rhs),rhsMax =  -1.51317959825800E-03  1.45668995863107E-01
 cg2d: Sum(rhs),rhsMax =  -1.51359869810648E-03  1.45690339752175E-01
(PID.TID 0000.0001)      cg2d_init_res =   1.67909354477500E-03
(PID.TID 0000.0001)      cg2d_iters(min,last) =      -1      83
(PID.TID 0000.0001)      cg2d_last_res =   9.84029447415531E-08
(PID.TID 0000.0001) // =======================================================
(PID.TID 0000.0001) // Begin MONITOR dynamic field statistics
(PID.TID 0000.0001) // =======================================================
(PID.TID 0000.0001) %MON time_tsnumber                =                  5760
(PID.TID 0000.0001) %MON time_secondsf                =   6.9120000000000E+06
(PID.TID 0000.0001) %MON dynstat_eta_max              =   1.4818954127568E-01
(PID.TID 0000.0001) %MON dynstat_eta_min              =  -6.2263165885873E-02
(PID.TID 0000.0001) %MON dynstat_eta_mean             =   1.1024848894548E-06
(PID.TID 0000.0001) %MON dynstat_eta_sd               =   6.2919655988956E-02
(PID.TID 0000.0001) %MON dynstat_eta_del2             =   2.0892833913887E-05
(PID.TID 0000.0001) %MON dynstat_uvel_max             =   1.0062598722725E-01
(PID.TID 0000.0001) %MON dynstat_uvel_min             =  -5.2483674379909E-02
(PID.TID 0000.0001) %MON dynstat_uvel_mean            =  -4.2542433644419E-08
(PID.TID 0000.0001) %MON dynstat_uvel_sd              =   2.7330026661816E-02
(PID.TID 0000.0001) %MON dynstat_uvel_del2            =   4.9340014645457E-05
(PID.TID 0000.0001) %MON dynstat_vvel_max             =   8.8903258378904E-02
(PID.TID 0000.0001) %MON dynstat_vvel_min             =  -6.6125995687605E-02
(PID.TID 0000.0001) %MON dynstat_vvel_mean            =   2.2854794306151E-07
(PID.TID 0000.0001) %MON dynstat_vvel_sd              =   2.4613880737351E-02
(PID.TID 0000.0001) %MON dynstat_vvel_del2            =   4.8181420584459E-05
(PID.TID 0000.0001) %MON dynstat_wvel_max             =   2.0236751018092E-08
(PID.TID 0000.0001) %MON dynstat_wvel_min             =  -1.4178312459262E-08
(PID.TID 0000.0001) %MON dynstat_wvel_mean            =  -6.3540240565392E-21
(PID.TID 0000.0001) %MON dynstat_wvel_sd              =   7.5800960600831E-09
(PID.TID 0000.0001) %MON dynstat_wvel_del2            =   3.9695278066274E-12
(PID.TID 0000.0001) %MON dynstat_theta_max            =   2.0000000000000E+01
(PID.TID 0000.0001) %MON dynstat_theta_min            =   2.0000000000000E+01
(PID.TID 0000.0001) %MON dynstat_theta_mean           =   2.0000000000000E+01
(PID.TID 0000.0001) %MON dynstat_theta_sd             =   3.8014036363165E-13
(PID.TID 0000.0001) %MON dynstat_theta_del2           =   0.0000000000000E+00
(PID.TID 0000.0001) %MON dynstat_salt_max             =   3.0000000000000E+01
(PID.TID 0000.0001) %MON dynstat_salt_min             =   3.0000000000000E+01
(PID.TID 0000.0001) %MON dynstat_salt_mean            =   2.9999999999999E+01
(PID.TID 0000.0001) %MON dynstat_salt_sd              =   5.5777604757167E-13
(PID.TID 0000.0001) %MON dynstat_salt_del2            =   0.0000000000000E+00
(PID.TID 0000.0001) %MON trAdv_CFL_u_max              =   6.0338951595015E-03
(PID.TID 0000.0001) %MON trAdv_CFL_v_max              =   5.3339385552495E-03
(PID.TID 0000.0001) %MON trAdv_CFL_w_max              =   5.3192025620429E-09
(PID.TID 0000.0001) %MON advcfl_uvel_max              =   6.0375592336347E-03
(PID.TID 0000.0001) %MON advcfl_vvel_max              =   5.3341955027342E-03
(PID.TID 0000.0001) %MON advcfl_wvel_max              =   9.7136404886842E-09
(PID.TID 0000.0001) %MON advcfl_W_hf_max              =   0.0000000000000E+00
(PID.TID 0000.0001) %MON pe_b_mean                    =   4.0587843071969E-06
(PID.TID 0000.0001) %MON ke_max                       =   5.0595924830729E-03
(PID.TID 0000.0001) %MON ke_mean                      =   6.6394892508432E-04
(PID.TID 0000.0001) %MON ke_vol                       =   6.8893493896486E+15
(PID.TID 0000.0001) %MON vort_r_min                   =  -1.0152240473601E-06
(PID.TID 0000.0001) %MON vort_r_max                   =   2.2196373889802E-06
(PID.TID 0000.0001) %MON vort_a_mean                  =   1.0600000000000E-04
(PID.TID 0000.0001) %MON vort_a_sd                    =   3.5422107462950E-06
(PID.TID 0000.0001) %MON vort_p_mean                  =   1.1652272308690E-04
(PID.TID 0000.0001) %MON vort_p_sd                    =   4.1771649234901E-05
(PID.TID 0000.0001) %MON surfExpan_theta_mean         =  -1.2709430545025E-19
(PID.TID 0000.0001) %MON surfExpan_salt_mean          =  -1.9062756311743E-19
(PID.TID 0000.0001) // =======================================================
(PID.TID 0000.0001) // End MONITOR dynamic field statistics
(PID.TID 0000.0001) // =======================================================
 cg2d: Sum(rhs),rhsMax =  -1.51401746286228E-03  1.45711674005801E-01
 cg2d: Sum(rhs),rhsMax =  -1.51443589108878E-03  1.45732998611084E-01
 cg2d: Sum(rhs),rhsMax =  -1.51485398237902E-03  1.45754313555146E-01
 cg2d: Sum(rhs),rhsMax =  -1.51527173634334E-03  1.45775618825119E-01
 cg2d: Sum(rhs),rhsMax =  -1.51568915195741E-03  1.45796914408160E-01
 cg2d: Sum(rhs),rhsMax =  -1.51610622944768E-03  1.45818200291438E-01
 cg2d: Sum(rhs),rhsMax =  -1.51652296809379E-03  1.45839476462138E-01
 cg2d: Sum(rhs),rhsMax =  -1.51693936705083E-03  1.45860742907467E-01
 cg2d: Sum(rhs),rhsMax =  -1.51735542563579E-03  1.45881999614642E-01
 cg2d: Sum(rhs),rhsMax =  -1.51777114429333E-03  1.45903246570905E-01
 cg2d: Sum(rhs),rhsMax =  -1.51850579183177E-03  1.45924483761439E-01
 cg2d: Sum(rhs),rhsMax =  -1.51923999394071E-03  1.45945711123511E-01
 cg2d: Sum(rhs),rhsMax =  -1.51997373250669E-03  1.45966928732005E-01
 cg2d: Sum(rhs),rhsMax =  -1.52070700400468E-03  1.45988136538784E-01
 cg2d: Sum(rhs),rhsMax =  -1.52143980806067E-03  1.46009334533837E-01
 cg2d: Sum(rhs),rhsMax =  -1.52217214483819E-03  1.46030522703507E-01
 cg2d: Sum(rhs),rhsMax =  -1.52290401429007E-03  1.46051701032811E-01
 cg2d: Sum(rhs),rhsMax =  -1.52363541538769E-03  1.46072869508214E-01
 cg2d: Sum(rhs),rhsMax =  -1.52436634768190E-03  1.46094028117489E-01
 cg2d: Sum(rhs),rhsMax =  -1.52509681000030E-03  1.46115176848825E-01
 cg2d: Sum(rhs),rhsMax =  -1.52582680155332E-03  1.46136315690213E-01
 cg2d: Sum(rhs),rhsMax =  -1.52655632092894E-03  1.46157444629275E-01
 cg2d: Sum(rhs),rhsMax =  -1.52728536755499E-03  1.46178563653389E-01
 cg2d: Sum(rhs),rhsMax =  -1.52801394023704E-03  1.46199672749861E-01
 cg2d: Sum(rhs),rhsMax =  -1.52874203821044E-03  1.46220771906047E-01
 cg2d: Sum(rhs),rhsMax =  -1.52946966019223E-03  1.46241861109404E-01
 cg2d: Sum(rhs),rhsMax =  -1.53019680599032E-03  1.46262940347462E-01
 cg2d: Sum(rhs),rhsMax =  -1.53092347415999E-03  1.46284009607804E-01
 cg2d: Sum(rhs),rhsMax =  -1.53164966392872E-03  1.46305068878024E-01
 cg2d: Sum(rhs),rhsMax =  -1.53237537460215E-03  1.46326118145725E-01
 cg2d: Sum(rhs),rhsMax =  -1.53310060524601E-03  1.46347157398510E-01
 cg2d: Sum(rhs),rhsMax =  -1.53382535464831E-03  1.46368186624002E-01
 cg2d: Sum(rhs),rhsMax =  -1.53454962190489E-03  1.46389205809835E-01
 cg2d: Sum(rhs),rhsMax =  -1.53527340630404E-03  1.46410214943673E-01
 cg2d: Sum(rhs),rhsMax =  -1.53599670692378E-03  1.46431214013194E-01
 cg2d: Sum(rhs),rhsMax =  -1.53671952316462E-03  1.46452203006096E-01
 cg2d: Sum(rhs),rhsMax =  -1.53744185393810E-03  1.46473181910089E-01
 cg2d: Sum(rhs),rhsMax =  -1.53816369803251E-03  1.46494150712900E-01
 cg2d: Sum(rhs),rhsMax =  -1.53888505491221E-03  1.46515109402271E-01
 cg2d: Sum(rhs),rhsMax =  -1.53960592385231E-03  1.46536057965962E-01
 cg2d: Sum(rhs),rhsMax =  -1.54032630382594E-03  1.46556996391756E-01
 cg2d: Sum(rhs),rhsMax =  -1.54104619377918E-03  1.46577924667451E-01
 cg2d: Sum(rhs),rhsMax =  -1.54176559292988E-03  1.46598842780867E-01
 cg2d: Sum(rhs),rhsMax =  -1.54248450054091E-03  1.46619750719845E-01
 cg2d: Sum(rhs),rhsMax =  -1.54320291578551E-03  1.46640648472242E-01
 cg2d: Sum(rhs),rhsMax =  -1.54392083760210E-03  1.46661536025933E-01
 cg2d: Sum(rhs),rhsMax =  -1.54463826547934E-03  1.46682413368809E-01
 cg2d: Sum(rhs),rhsMax =  -1.54535519815130E-03  1.46703280488777E-01
 cg2d: Sum(rhs),rhsMax =  -1.54607163545281E-03  1.46724137373767E-01
 cg2d: Sum(rhs),rhsMax =  -1.54678757593891E-03  1.46744984011720E-01
 cg2d: Sum(rhs),rhsMax =  -1.54750301853527E-03  1.46765820390600E-01
 cg2d: Sum(rhs),rhsMax =  -1.54821796335439E-03  1.46786646498392E-01
 cg2d: Sum(rhs),rhsMax =  -1.54893240893693E-03  1.46807462323092E-01
 cg2d: Sum(rhs),rhsMax =  -1.54964635437643E-03  1.46828267852721E-01
 cg2d: Sum(rhs),rhsMax =  -1.55035979945060E-03  1.46849063075318E-01
 cg2d: Sum(rhs),rhsMax =  -1.55107274292663E-03  1.46869847978936E-01
 cg2d: Sum(rhs),rhsMax =  -1.55178518388354E-03  1.46890622551650E-01
 cg2d: Sum(rhs),rhsMax =  -1.55249712182140E-03  1.46911386781552E-01
 cg2d: Sum(rhs),rhsMax =  -1.55320855603414E-03  1.46932140656753E-01
 cg2d: Sum(rhs),rhsMax =  -1.55391948525196E-03  1.46952884165383E-01
 cg2d: Sum(rhs),rhsMax =  -1.55462990919430E-03  1.46973617295587E-01
 cg2d: Sum(rhs),rhsMax =  -1.55533982693516E-03  1.46994340035533E-01
 cg2d: Sum(rhs),rhsMax =  -1.55604923755581E-03  1.47015052373404E-01
 cg2d: Sum(rhs),rhsMax =  -1.55675814037286E-03  1.47035754297404E-01
 cg2d: Sum(rhs),rhsMax =  -1.55746653460592E-03  1.47056445795755E-01
 cg2d: Sum(rhs),rhsMax =  -1.55817441981271E-03  1.47077126856695E-01
 cg2d: Sum(rhs),rhsMax =  -1.55888179455542E-03  1.47097797468486E-01
 cg2d: Sum(rhs),rhsMax =  -1.55958865874455E-03  1.47118457619405E-01
 cg2d: Sum(rhs),rhsMax =  -1.56029501131196E-03  1.47139107297746E-01
 cg2d: Sum(rhs),rhsMax =  -1.56100085151110E-03  1.47159746491826E-01
 cg2d: Sum(rhs),rhsMax =  -1.56170617893264E-03  1.47180375189976E-01
 cg2d: Sum(rhs),rhsMax =  -1.56241099261917E-03  1.47200993380555E-01
(PID.TID 0000.0001)      cg2d_init_res =   1.64796069449941E-03
(PID.TID 0000.0001)      cg2d_iters(min,last) =      -1      81
(PID.TID 0000.0001)      cg2d_last_res =   9.90259736789571E-08
(PID.TID 0000.0001) // =======================================================
(PID.TID 0000.0001) // Begin MONITOR dynamic field statistics
(PID.TID 0000.0001) // =======================================================
(PID.TID 0000.0001) %MON time_tsnumber                =                  5832
(PID.TID 0000.0001) %MON time_secondsf                =   6.9984000000000E+06
(PID.TID 0000.0001) %MON dynstat_eta_max              =   1.4971032145325E-01
(PID.TID 0000.0001) %MON dynstat_eta_min              =  -6.2588289109539E-02
(PID.TID 0000.0001) %MON dynstat_eta_mean             =   1.1500320982827E-06
(PID.TID 0000.0001) %MON dynstat_eta_sd               =   6.3490594870817E-02
(PID.TID 0000.0001) %MON dynstat_eta_del2             =   2.1042300307690E-05
(PID.TID 0000.0001) %MON dynstat_uvel_max             =   1.0168189325683E-01
(PID.TID 0000.0001) %MON dynstat_uvel_min             =  -5.3150465029587E-02
(PID.TID 0000.0001) %MON dynstat_uvel_mean            =  -3.6465770450882E-08
(PID.TID 0000.0001) %MON dynstat_uvel_sd              =   2.7571817796235E-02
(PID.TID 0000.0001) %MON dynstat_uvel_del2            =   4.9914729617911E-05
(PID.TID 0000.0001) %MON dynstat_vvel_max             =   8.9138804550366E-02
(PID.TID 0000.0001) %MON dynstat_vvel_min             =  -6.6692654560043E-02
(PID.TID 0000.0001) %MON dynstat_vvel_mean            =   2.2785140757758E-07
(PID.TID 0000.0001) %MON dynstat_vvel_sd              =   2.4790156728163E-02
(PID.TID 0000.0001) %MON dynstat_vvel_del2            =   4.8054747811217E-05
(PID.TID 0000.0001) %MON dynstat_wvel_max             =   2.0215937890462E-08
(PID.TID 0000.0001) %MON dynstat_wvel_min             =  -1.4174410767155E-08
(PID.TID 0000.0001) %MON dynstat_wvel_mean            =  -4.9684523320239E-21
(PID.TID 0000.0001) %MON dynstat_wvel_sd              =   7.5451248627402E-09
(PID.TID 0000.0001) %MON dynstat_wvel_del2            =   3.9481276637466E-12
(PID.TID 0000.0001) %MON dynstat_theta_max            =   2.0000000000000E+01
(PID.TID 0000.0001) %MON dynstat_theta_min            =   2.0000000000000E+01
(PID.TID 0000.0001) %MON dynstat_theta_mean           =   2.0000000000000E+01
(PID.TID 0000.0001) %MON dynstat_theta_sd             =   3.8014036363165E-13
(PID.TID 0000.0001) %MON dynstat_theta_del2           =   0.0000000000000E+00
(PID.TID 0000.0001) %MON dynstat_salt_max             =   3.0000000000000E+01
(PID.TID 0000.0001) %MON dynstat_salt_min             =   3.0000000000000E+01
(PID.TID 0000.0001) %MON dynstat_salt_mean            =   2.9999999999999E+01
(PID.TID 0000.0001) %MON dynstat_salt_sd              =   5.5777604757167E-13
(PID.TID 0000.0001) %MON dynstat_salt_del2            =   0.0000000000000E+00
(PID.TID 0000.0001) %MON trAdv_CFL_u_max              =   6.0972399800366E-03
(PID.TID 0000.0001) %MON trAdv_CFL_v_max              =   5.3481909639912E-03
(PID.TID 0000.0001) %MON trAdv_CFL_w_max              =   5.3127981743448E-09
(PID.TID 0000.0001) %MON advcfl_uvel_max              =   6.1009135954100E-03
(PID.TID 0000.0001) %MON advcfl_vvel_max              =   5.3483282730220E-03
(PID.TID 0000.0001) %MON advcfl_wvel_max              =   9.7036501874216E-09
(PID.TID 0000.0001) %MON advcfl_W_hf_max              =   0.0000000000000E+00
(PID.TID 0000.0001) %MON pe_b_mean                    =   4.1327780860897E-06
(PID.TID 0000.0001) %MON ke_max                       =   5.1676639899257E-03
(PID.TID 0000.0001) %MON ke_mean                      =   6.7473856423823E-04
(PID.TID 0000.0001) %MON ke_vol                       =   6.8893493896486E+15
(PID.TID 0000.0001) %MON vort_r_min                   =  -1.0234522496131E-06
(PID.TID 0000.0001) %MON vort_r_max                   =   2.2451853750099E-06
(PID.TID 0000.0001) %MON vort_a_mean                  =   1.0600000000000E-04
(PID.TID 0000.0001) %MON vort_a_sd                    =   3.5425017321174E-06
(PID.TID 0000.0001) %MON vort_p_mean                  =   1.1652272308690E-04
(PID.TID 0000.0001) %MON vort_p_sd                    =   4.1772038531486E-05
(PID.TID 0000.0001) %MON surfExpan_theta_mean         =  -9.9379980787894E-20
(PID.TID 0000.0001) %MON surfExpan_salt_mean          =  -1.4908449783333E-19
(PID.TID 0000.0001) // =======================================================
(PID.TID 0000.0001) // End MONITOR dynamic field statistics
(PID.TID 0000.0001) // =======================================================
 cg2d: Sum(rhs),rhsMax =  -1.56311529181941E-03  1.47221601051926E-01
 cg2d: Sum(rhs),rhsMax =  -1.56381907590041E-03  1.47242198192485E-01
 cg2d: Sum(rhs),rhsMax =  -1.56452234414781E-03  1.47262784790636E-01
 cg2d: Sum(rhs),rhsMax =  -1.56522509593871E-03  1.47283360834810E-01
 cg2d: Sum(rhs),rhsMax =  -1.56592733054715E-03  1.47303926313452E-01
 cg2d: Sum(rhs),rhsMax =  -1.56662904721316E-03  1.47324481215029E-01
 cg2d: Sum(rhs),rhsMax =  -1.56733024537444E-03  1.47345025528023E-01
 cg2d: Sum(rhs),rhsMax =  -1.56803092432824E-03  1.47365559240938E-01
 cg2d: Sum(rhs),rhsMax =  -1.56873108316783E-03  1.47386082342299E-01
 cg2d: Sum(rhs),rhsMax =  -1.56943072150609E-03  1.47406594820642E-01
 cg2d: Sum(rhs),rhsMax =  -1.57012983878793E-03  1.47427096664532E-01
 cg2d: Sum(rhs),rhsMax =  -1.57082843394852E-03  1.47447587862546E-01
 cg2d: Sum(rhs),rhsMax =  -1.57152650677612E-03  1.47468068403281E-01
 cg2d: Sum(rhs),rhsMax =  -1.57222405649808E-03  1.47488538275358E-01
 cg2d: Sum(rhs),rhsMax =  -1.57292108217723E-03  1.47508997467411E-01
 cg2d: Sum(rhs),rhsMax =  -1.57361758373753E-03  1.47529445968094E-01
 cg2d: Sum(rhs),rhsMax =  -1.57431356051396E-03  1.47549883766087E-01
 cg2d: Sum(rhs),rhsMax =  -1.57500901150126E-03  1.47570310850078E-01
 cg2d: Sum(rhs),rhsMax =  -1.57570393589071E-03  1.47590727208785E-01
 cg2d: Sum(rhs),rhsMax =  -1.57639833399344E-03  1.47611132830937E-01
 cg2d: Sum(rhs),rhsMax =  -1.57709220457762E-03  1.47631527705286E-01
 cg2d: Sum(rhs),rhsMax =  -1.57778554708794E-03  1.47651911820605E-01
 cg2d: Sum(rhs),rhsMax =  -1.57847836130227E-03  1.47672285165684E-01
 cg2d: Sum(rhs),rhsMax =  -1.57917064630392E-03  1.47692647729330E-01
 cg2d: Sum(rhs),rhsMax =  -1.57986240190423E-03  1.47712999500373E-01
 cg2d: Sum(rhs),rhsMax =  -1.58055362710788E-03  1.47733340467662E-01
 cg2d: Sum(rhs),rhsMax =  -1.58124432166182E-03  1.47753670620064E-01
 cg2d: Sum(rhs),rhsMax =  -1.58193448462951E-03  1.47773989946466E-01
 cg2d: Sum(rhs),rhsMax =  -1.58262411598089E-03  1.47794298435774E-01
 cg2d: Sum(rhs),rhsMax =  -1.58331321514748E-03  1.47814596076914E-01
 cg2d: Sum(rhs),rhsMax =  -1.58400178161724E-03  1.47834882858833E-01
 cg2d: Sum(rhs),rhsMax =  -1.58468981443576E-03  1.47855158770493E-01
 cg2d: Sum(rhs),rhsMax =  -1.58537731350576E-03  1.47875423800880E-01
 cg2d: Sum(rhs),rhsMax =  -1.58606427853423E-03  1.47895677938998E-01
 cg2d: Sum(rhs),rhsMax =  -1.58675070875222E-03  1.47915921173869E-01
 cg2d: Sum(rhs),rhsMax =  -1.58743660369538E-03  1.47936153494537E-01
 cg2d: Sum(rhs),rhsMax =  -1.58812196277273E-03  1.47956374890066E-01
 cg2d: Sum(rhs),rhsMax =  -1.58880678572182E-03  1.47976585349535E-01
 cg2d: Sum(rhs),rhsMax =  -1.58949107207415E-03  1.47996784862049E-01
 cg2d: Sum(rhs),rhsMax =  -1.59017482140556E-03  1.48016973416728E-01
 cg2d: Sum(rhs),rhsMax =  -1.59085803337232E-03  1.48037151002714E-01
 cg2d: Sum(rhs),rhsMax =  -1.59154070739273E-03  1.48057317609166E-01
 cg2d: Sum(rhs),rhsMax =  -1.59222284307720E-03  1.48077473225268E-01
 cg2d: Sum(rhs),rhsMax =  -1.59290443982851E-03  1.48097617840218E-01
 cg2d: Sum(rhs),rhsMax =  -1.59358549767537E-03  1.48117751443237E-01
 cg2d: Sum(rhs),rhsMax =  -1.59426601590558E-03  1.48137874023566E-01
 cg2d: Sum(rhs),rhsMax =  -1.59494599409700E-03  1.48157985570462E-01
 cg2d: Sum(rhs),rhsMax =  -1.59562543221563E-03  1.48178086073208E-01
 cg2d: Sum(rhs),rhsMax =  -1.59630432929073E-03  1.48198175521102E-01
 cg2d: Sum(rhs),rhsMax =  -1.59698268553354E-03  1.48218253903464E-01
 cg2d: Sum(rhs),rhsMax =  -1.59766050033531E-03  1.48238321209634E-01
 cg2d: Sum(rhs),rhsMax =  -1.59833777375250E-03  1.48258377428969E-01
 cg2d: Sum(rhs),rhsMax =  -1.59901450473604E-03  1.48278422550850E-01
 cg2d: Sum(rhs),rhsMax =  -1.59969069352397E-03  1.48298456564676E-01
 cg2d: Sum(rhs),rhsMax =  -1.60036633955565E-03  1.48318479459866E-01
 cg2d: Sum(rhs),rhsMax =  -1.60104144267071E-03  1.48338491225862E-01
 cg2d: Sum(rhs),rhsMax =  -1.60171600229151E-03  1.48358491852118E-01
 cg2d: Sum(rhs),rhsMax =  -1.60239001827576E-03  1.48378481328117E-01
 cg2d: Sum(rhs),rhsMax =  -1.60306349029394E-03  1.48398459643359E-01
 cg2d: Sum(rhs),rhsMax =  -1.60373641812582E-03  1.48418426787360E-01
 cg2d: Sum(rhs),rhsMax =  -1.60440880177978E-03  1.48438382749663E-01
 cg2d: Sum(rhs),rhsMax =  -1.60508064056853E-03  1.48458327519827E-01
 cg2d: Sum(rhs),rhsMax =  -1.60575193441479E-03  1.48478261087431E-01
 cg2d: Sum(rhs),rhsMax =  -1.60642268304349E-03  1.48498183442075E-01
 cg2d: Sum(rhs),rhsMax =  -1.60709288615423E-03  1.48518094573379E-01
 cg2d: Sum(rhs),rhsMax =  -1.60776254347953E-03  1.48537994470988E-01
 cg2d: Sum(rhs),rhsMax =  -1.60843165481458E-03  1.48557883124557E-01
 cg2d: Sum(rhs),rhsMax =  -1.60910021992759E-03  1.48577760523769E-01
 cg2d: Sum(rhs),rhsMax =  -1.60976823865461E-03  1.48597626658327E-01
 cg2d: Sum(rhs),rhsMax =  -1.61043571116438E-03  1.48617481517951E-01
 cg2d: Sum(rhs),rhsMax =  -1.61110263674556E-03  1.48637325092382E-01
 cg2d: Sum(rhs),rhsMax =  -1.61176901561411E-03  1.48657157371386E-01
(PID.TID 0000.0001)      cg2d_init_res =   1.61809210241002E-03
(PID.TID 0000.0001)      cg2d_iters(min,last) =      -1      81
(PID.TID 0000.0001)      cg2d_last_res =   9.77501183885634E-08
(PID.TID 0000.0001) // =======================================================
(PID.TID 0000.0001) // Begin MONITOR dynamic field statistics
(PID.TID 0000.0001) // =======================================================
(PID.TID 0000.0001) %MON time_tsnumber                =                  5904
(PID.TID 0000.0001) %MON time_secondsf                =   7.0848000000000E+06
(PID.TID 0000.0001) %MON dynstat_eta_max              =   1.5122063453836E-01
(PID.TID 0000.0001) %MON dynstat_eta_min              =  -6.2905585711967E-02
(PID.TID 0000.0001) %MON dynstat_eta_mean             =   1.1980455080284E-06
(PID.TID 0000.0001) %MON dynstat_eta_sd               =   6.4058673984261E-02
(PID.TID 0000.0001) %MON dynstat_eta_del2             =   2.1190909396624E-05
(PID.TID 0000.0001) %MON dynstat_uvel_max             =   1.0271242588394E-01
(PID.TID 0000.0001) %MON dynstat_uvel_min             =  -5.3806987544987E-02
(PID.TID 0000.0001) %MON dynstat_uvel_mean            =  -3.0893744747212E-08
(PID.TID 0000.0001) %MON dynstat_uvel_sd              =   2.7810878193899E-02
(PID.TID 0000.0001) %MON dynstat_uvel_del2            =   5.0486634180056E-05
(PID.TID 0000.0001) %MON dynstat_vvel_max             =   8.9231207868789E-02
(PID.TID 0000.0001) %MON dynstat_vvel_min             =  -6.7240893301791E-02
(PID.TID 0000.0001) %MON dynstat_vvel_mean            =   2.2695610595741E-07
(PID.TID 0000.0001) %MON dynstat_vvel_sd              =   2.4964950496347E-02
(PID.TID 0000.0001) %MON dynstat_vvel_del2            =   4.7906363400770E-05
(PID.TID 0000.0001) %MON dynstat_wvel_max             =   2.0217393932398E-08
(PID.TID 0000.0001) %MON dynstat_wvel_min             =  -1.4205367255490E-08
(PID.TID 0000.0001) %MON dynstat_wvel_mean            =  -1.8343593587310E-21
(PID.TID 0000.0001) %MON dynstat_wvel_sd              =   7.5113272341257E-09
(PID.TID 0000.0001) %MON dynstat_wvel_del2            =   3.9255500494653E-12
(PID.TID 0000.0001) %MON dynstat_theta_max            =   2.0000000000000E+01
(PID.TID 0000.0001) %MON dynstat_theta_min            =   2.0000000000000E+01
(PID.TID 0000.0001) %MON dynstat_theta_mean           =   2.0000000000000E+01
(PID.TID 0000.0001) %MON dynstat_theta_sd             =   3.8014036363165E-13
(PID.TID 0000.0001) %MON dynstat_theta_del2           =   0.0000000000000E+00
(PID.TID 0000.0001) %MON dynstat_salt_max             =   3.0000000000000E+01
(PID.TID 0000.0001) %MON dynstat_salt_min             =   3.0000000000000E+01
(PID.TID 0000.0001) %MON dynstat_salt_mean            =   2.9999999999999E+01
(PID.TID 0000.0001) %MON dynstat_salt_sd              =   5.5777604757167E-13
(PID.TID 0000.0001) %MON dynstat_salt_del2            =   0.0000000000000E+00
(PID.TID 0000.0001) %MON trAdv_CFL_u_max              =   6.1590661419074E-03
(PID.TID 0000.0001) %MON trAdv_CFL_v_max              =   5.3538538180270E-03
(PID.TID 0000.0001) %MON trAdv_CFL_w_max              =   5.3049397803523E-09
(PID.TID 0000.0001) %MON advcfl_uvel_max              =   6.1627455530362E-03
(PID.TID 0000.0001) %MON advcfl_vvel_max              =   5.3538724721274E-03
(PID.TID 0000.0001) %MON advcfl_wvel_max              =   9.7043490875512E-09
(PID.TID 0000.0001) %MON advcfl_W_hf_max              =   0.0000000000000E+00
(PID.TID 0000.0001) %MON pe_b_mean                    =   4.2070646190012E-06
(PID.TID 0000.0001) %MON ke_max                       =   5.2744565898385E-03
(PID.TID 0000.0001) %MON ke_mean                      =   6.8550521753710E-04
(PID.TID 0000.0001) %MON ke_vol                       =   6.8893493896486E+15
(PID.TID 0000.0001) %MON vort_r_min                   =  -1.0312866837737E-06
(PID.TID 0000.0001) %MON vort_r_max                   =   2.2703119621888E-06
(PID.TID 0000.0001) %MON vort_a_mean                  =   1.0600000000000E-04
(PID.TID 0000.0001) %MON vort_a_sd                    =   3.5427874686806E-06
(PID.TID 0000.0001) %MON vort_p_mean                  =   1.1652272308690E-04
(PID.TID 0000.0001) %MON vort_p_sd                    =   4.1772412944720E-05
(PID.TID 0000.0001) %MON surfExpan_theta_mean         =  -3.6578108443387E-20
(PID.TID 0000.0001) %MON surfExpan_salt_mean          =  -5.4863373103823E-20
(PID.TID 0000.0001) // =======================================================
(PID.TID 0000.0001) // End MONITOR dynamic field statistics
(PID.TID 0000.0001) // =======================================================
 cg2d: Sum(rhs),rhsMax =  -1.61243484687858E-03  1.48676978344742E-01
 cg2d: Sum(rhs),rhsMax =  -1.61310013124552E-03  1.48696788002255E-01
 cg2d: Sum(rhs),rhsMax =  -1.61376486797444E-03  1.48716586333745E-01
 cg2d: Sum(rhs),rhsMax =  -1.61442905728098E-03  1.48736373329062E-01
 cg2d: Sum(rhs),rhsMax =  -1.61509269871416E-03  1.48756148978064E-01
 cg2d: Sum(rhs),rhsMax =  -1.61575579225366E-03  1.48775913270640E-01
 cg2d: Sum(rhs),rhsMax =  -1.61641833809508E-03  1.48795666196695E-01
 cg2d: Sum(rhs),rhsMax =  -1.61708033552858E-03  1.48815407746152E-01
 cg2d: Sum(rhs),rhsMax =  -1.61774178478804E-03  1.48835137908961E-01
 cg2d: Sum(rhs),rhsMax =  -1.61840268537158E-03  1.48854856675086E-01
 cg2d: Sum(rhs),rhsMax =  -1.61906303793616E-03  1.48874564034514E-01
 cg2d: Sum(rhs),rhsMax =  -1.61972284171685E-03  1.48894259977254E-01
 cg2d: Sum(rhs),rhsMax =  -1.62038209703228E-03  1.48913944493335E-01
 cg2d: Sum(rhs),rhsMax =  -1.62104080340337E-03  1.48933617572806E-01
 cg2d: Sum(rhs),rhsMax =  -1.62169896111824E-03  1.48953279205737E-01
 cg2d: Sum(rhs),rhsMax =  -1.62235657007890E-03  1.48972929382217E-01
 cg2d: Sum(rhs),rhsMax =  -1.62301362995008E-03  1.48992568092357E-01
 cg2d: Sum(rhs),rhsMax =  -1.62367014095654E-03  1.49012195326293E-01
 cg2d: Sum(rhs),rhsMax =  -1.62432610298304E-03  1.49031811074170E-01
 cg2d: Sum(rhs),rhsMax =  -1.62498151583277E-03  1.49051415326169E-01
 cg2d: Sum(rhs),rhsMax =  -1.62563637967897E-03  1.49071008072480E-01
 cg2d: Sum(rhs),rhsMax =  -1.62629069440427E-03  1.49090589303318E-01
 cg2d: Sum(rhs),rhsMax =  -1.62694446015521E-03  1.49110159008918E-01
 cg2d: Sum(rhs),rhsMax =  -1.62759767657702E-03  1.49129717179538E-01
 cg2d: Sum(rhs),rhsMax =  -1.62825034374342E-03  1.49149263805454E-01
 cg2d: Sum(rhs),rhsMax =  -1.62890246184803E-03  1.49168798876964E-01
 cg2d: Sum(rhs),rhsMax =  -1.62955403062622E-03  1.49188322384387E-01
 cg2d: Sum(rhs),rhsMax =  -1.63020505053061E-03  1.49207834318063E-01
 cg2d: Sum(rhs),rhsMax =  -1.63085552130488E-03  1.49227334668352E-01
 cg2d: Sum(rhs),rhsMax =  -1.63150544315107E-03  1.49246823425639E-01
 cg2d: Sum(rhs),rhsMax =  -1.63215481591151E-03  1.49266300580321E-01
 cg2d: Sum(rhs),rhsMax =  -1.63280363947594E-03  1.49285766122824E-01
 cg2d: Sum(rhs),rhsMax =  -1.63345191424497E-03  1.49305220043592E-01
 cg2d: Sum(rhs),rhsMax =  -1.63409964004691E-03  1.49324662333091E-01
 cg2d: Sum(rhs),rhsMax =  -1.63474681683163E-03  1.49344092981806E-01
 cg2d: Sum(rhs),rhsMax =  -1.63539344509719E-03  1.49363511980247E-01
 cg2d: Sum(rhs),rhsMax =  -1.63603952429103E-03  1.49382919318939E-01
 cg2d: Sum(rhs),rhsMax =  -1.63668505496472E-03  1.49402314988435E-01
 cg2d: Sum(rhs),rhsMax =  -1.63733003704172E-03  1.49421698979303E-01
 cg2d: Sum(rhs),rhsMax =  -1.63797447090352E-03  1.49441071282135E-01
 cg2d: Sum(rhs),rhsMax =  -1.63861835595681E-03  1.49460431887545E-01
 cg2d: Sum(rhs),rhsMax =  -1.63926169250218E-03  1.49479780786164E-01
 cg2d: Sum(rhs),rhsMax =  -1.63990448095055E-03  1.49499117968652E-01
 cg2d: Sum(rhs),rhsMax =  -1.64054672150461E-03  1.49518443425679E-01
 cg2d: Sum(rhs),rhsMax =  -1.64118841385139E-03  1.49537757147950E-01
 cg2d: Sum(rhs),rhsMax =  -1.64182955845541E-03  1.49557059126175E-01
 cg2d: Sum(rhs),rhsMax =  -1.64247015472003E-03  1.49576349351098E-01
 cg2d: Sum(rhs),rhsMax =  -1.64311020352617E-03  1.49595627813480E-01
 cg2d: Sum(rhs),rhsMax =  -1.64374970486928E-03  1.49614894504104E-01
 cg2d: Sum(rhs),rhsMax =  -1.64438865855500E-03  1.49634149413772E-01
 cg2d: Sum(rhs),rhsMax =  -1.64502706483251E-03  1.49653392533309E-01
 cg2d: Sum(rhs),rhsMax =  -1.64566492411760E-03  1.49672623853561E-01
 cg2d: Sum(rhs),rhsMax =  -1.64630223624922E-03  1.49691843365395E-01
 cg2d: Sum(rhs),rhsMax =  -1.64693900149546E-03  1.49711051059701E-01
 cg2d: Sum(rhs),rhsMax =  -1.64757521956326E-03  1.49730246927388E-01
 cg2d: Sum(rhs),rhsMax =  -1.64821089145767E-03  1.49749430959386E-01
 cg2d: Sum(rhs),rhsMax =  -1.64884601650948E-03  1.49768603146651E-01
 cg2d: Sum(rhs),rhsMax =  -1.64948059560645E-03  1.49787763480155E-01
 cg2d: Sum(rhs),rhsMax =  -1.65011462820788E-03  1.49806911950895E-01
 cg2d: Sum(rhs),rhsMax =  -1.65074811491496E-03  1.49826048549885E-01
 cg2d: Sum(rhs),rhsMax =  -1.65138105571079E-03  1.49845173268168E-01
 cg2d: Sum(rhs),rhsMax =  -1.65201345071398E-03  1.49864286096799E-01
 cg2d: Sum(rhs),rhsMax =  -1.65264530053504E-03  1.49883387026863E-01
 cg2d: Sum(rhs),rhsMax =  -1.65327660461137E-03  1.49902476049461E-01
 cg2d: Sum(rhs),rhsMax =  -1.65390736333755E-03  1.49921553155716E-01
 cg2d: Sum(rhs),rhsMax =  -1.65453757723712E-03  1.49940618336779E-01
 cg2d: Sum(rhs),rhsMax =  -1.65516724596331E-03  1.49959671583813E-01
 cg2d: Sum(rhs),rhsMax =  -1.65579637041116E-03  1.49978712888007E-01
 cg2d: Sum(rhs),rhsMax =  -1.65642495020025E-03  1.49997742240573E-01
 cg2d: Sum(rhs),rhsMax =  -1.65705298569016E-03  1.50016759632742E-01
 cg2d: Sum(rhs),rhsMax =  -1.65768047672420E-03  1.50035765055769E-01
 cg2d: Sum(rhs),rhsMax =  -1.65830742365030E-03  1.50054758500930E-01
(PID.TID 0000.0001)      cg2d_init_res =   1.58954525671797E-03
(PID.TID 0000.0001)      cg2d_iters(min,last) =      -1      81
(PID.TID 0000.0001)      cg2d_last_res =   9.61693767419984E-08
(PID.TID 0000.0001) // =======================================================
(PID.TID 0000.0001) // Begin MONITOR dynamic field statistics
(PID.TID 0000.0001) // =======================================================
(PID.TID 0000.0001) %MON time_tsnumber                =                  5976
(PID.TID 0000.0001) %MON time_secondsf                =   7.1712000000000E+06
(PID.TID 0000.0001) %MON dynstat_eta_max              =   1.5272073655068E-01
(PID.TID 0000.0001) %MON dynstat_eta_min              =  -6.3215981648210E-02
(PID.TID 0000.0001) %MON dynstat_eta_mean             =   1.2441741744400E-06
(PID.TID 0000.0001) %MON dynstat_eta_sd               =   6.4624034991360E-02
(PID.TID 0000.0001) %MON dynstat_eta_del2             =   2.1338572433077E-05
(PID.TID 0000.0001) %MON dynstat_uvel_max             =   1.0372758499352E-01
(PID.TID 0000.0001) %MON dynstat_uvel_min             =  -5.4443734248904E-02
(PID.TID 0000.0001) %MON dynstat_uvel_mean            =  -2.5792223972511E-08
(PID.TID 0000.0001) %MON dynstat_uvel_sd              =   2.8047205796575E-02
(PID.TID 0000.0001) %MON dynstat_uvel_del2            =   5.1054476034076E-05
(PID.TID 0000.0001) %MON dynstat_vvel_max             =   8.9182709158852E-02
(PID.TID 0000.0001) %MON dynstat_vvel_min             =  -6.7771415987692E-02
(PID.TID 0000.0001) %MON dynstat_vvel_mean            =   2.2589348514308E-07
(PID.TID 0000.0001) %MON dynstat_vvel_sd              =   2.5138407652215E-02
(PID.TID 0000.0001) %MON dynstat_vvel_del2            =   4.7737264427155E-05
(PID.TID 0000.0001) %MON dynstat_wvel_max             =   2.0207368295523E-08
(PID.TID 0000.0001) %MON dynstat_wvel_min             =  -1.4204041311750E-08
(PID.TID 0000.0001) %MON dynstat_wvel_mean            =   6.2803949024076E-21
(PID.TID 0000.0001) %MON dynstat_wvel_sd              =   7.4783472067696E-09
(PID.TID 0000.0001) %MON dynstat_wvel_del2            =   3.9017160985754E-12
(PID.TID 0000.0001) %MON dynstat_theta_max            =   2.0000000000000E+01
(PID.TID 0000.0001) %MON dynstat_theta_min            =   2.0000000000000E+01
(PID.TID 0000.0001) %MON dynstat_theta_mean           =   2.0000000000000E+01
(PID.TID 0000.0001) %MON dynstat_theta_sd             =   3.8014036363165E-13
(PID.TID 0000.0001) %MON dynstat_theta_del2           =   0.0000000000000E+00
(PID.TID 0000.0001) %MON dynstat_salt_max             =   3.0000000000000E+01
(PID.TID 0000.0001) %MON dynstat_salt_min             =   3.0000000000000E+01
(PID.TID 0000.0001) %MON dynstat_salt_mean            =   2.9999999999999E+01
(PID.TID 0000.0001) %MON dynstat_salt_sd              =   5.5777604757167E-13
(PID.TID 0000.0001) %MON dynstat_salt_del2            =   0.0000000000000E+00
(PID.TID 0000.0001) %MON trAdv_CFL_u_max              =   6.2201426298563E-03
(PID.TID 0000.0001) %MON trAdv_CFL_v_max              =   5.3510598279844E-03
(PID.TID 0000.0001) %MON trAdv_CFL_w_max              =   5.2982861527324E-09
(PID.TID 0000.0001) %MON advcfl_uvel_max              =   6.2236550996111E-03
(PID.TID 0000.0001) %MON advcfl_vvel_max              =   5.3509625495311E-03
(PID.TID 0000.0001) %MON advcfl_wvel_max              =   9.6995367818512E-09
(PID.TID 0000.0001) %MON advcfl_W_hf_max              =   0.0000000000000E+00
(PID.TID 0000.0001) %MON pe_b_mean                    =   4.2816526840685E-06
(PID.TID 0000.0001) %MON ke_max                       =   5.3795222739347E-03
(PID.TID 0000.0001) %MON ke_mean                      =   6.9624973602843E-04
(PID.TID 0000.0001) %MON ke_vol                       =   6.8893493896486E+15
(PID.TID 0000.0001) %MON vort_r_min                   =  -1.0387423691168E-06
(PID.TID 0000.0001) %MON vort_r_max                   =   2.2949260348411E-06
(PID.TID 0000.0001) %MON vort_a_mean                  =   1.0600000000000E-04
(PID.TID 0000.0001) %MON vort_a_sd                    =   3.5430677793270E-06
(PID.TID 0000.0001) %MON vort_p_mean                  =   1.1652272308690E-04
(PID.TID 0000.0001) %MON vort_p_sd                    =   4.1772773766317E-05
(PID.TID 0000.0001) %MON surfExpan_theta_mean         =   1.2568964141085E-19
(PID.TID 0000.0001) %MON surfExpan_salt_mean          =   1.8852119865187E-19
(PID.TID 0000.0001) // =======================================================
(PID.TID 0000.0001) // End MONITOR dynamic field statistics
(PID.TID 0000.0001) // =======================================================
 cg2d: Sum(rhs),rhsMax =  -1.65893382735507E-03  1.50073739959517E-01
 cg2d: Sum(rhs),rhsMax =  -1.65955968710018E-03  1.50092709422854E-01
 cg2d: Sum(rhs),rhsMax =  -1.66018500400290E-03  1.50111666882281E-01
 cg2d: Sum(rhs),rhsMax =  -1.66080977693393E-03  1.50130612329156E-01
 cg2d: Sum(rhs),rhsMax =  -1.66143400711717E-03  1.50149545754867E-01
 cg2d: Sum(rhs),rhsMax =  -1.66205769441213E-03  1.50168467150815E-01
 cg2d: Sum(rhs),rhsMax =  -1.66268083935812E-03  1.50187376508432E-01
 cg2d: Sum(rhs),rhsMax =  -1.66330344165614E-03  1.50206273819162E-01
 cg2d: Sum(rhs),rhsMax =  -1.66392550125757E-03  1.50225159074478E-01
 cg2d: Sum(rhs),rhsMax =  -1.66454701918733E-03  1.50244032265871E-01
 cg2d: Sum(rhs),rhsMax =  -1.66516799522516E-03  1.50262893384857E-01
 cg2d: Sum(rhs),rhsMax =  -1.66578842929317E-03  1.50281742422971E-01
 cg2d: Sum(rhs),rhsMax =  -1.66640832189819E-03  1.50300579371771E-01
 cg2d: Sum(rhs),rhsMax =  -1.66702767332369E-03  1.50319404222834E-01
 cg2d: Sum(rhs),rhsMax =  -1.66764648348804E-03  1.50338216967765E-01
 cg2d: Sum(rhs),rhsMax =  -1.66826475277788E-03  1.50357017598184E-01
 cg2d: Sum(rhs),rhsMax =  -1.66888248109612E-03  1.50375806105737E-01
 cg2d: Sum(rhs),rhsMax =  -1.66949966906244E-03  1.50394582482090E-01
 cg2d: Sum(rhs),rhsMax =  -1.67011631638772E-03  1.50413346718937E-01
 cg2d: Sum(rhs),rhsMax =  -1.67073242361533E-03  1.50432098807982E-01
 cg2d: Sum(rhs),rhsMax =  -1.67134799105759E-03  1.50450838740962E-01
 cg2d: Sum(rhs),rhsMax =  -1.67196301847686E-03  1.50469566509631E-01
 cg2d: Sum(rhs),rhsMax =  -1.67257750622472E-03  1.50488282105763E-01
 cg2d: Sum(rhs),rhsMax =  -1.67319145446732E-03  1.50506985521158E-01
 cg2d: Sum(rhs),rhsMax =  -1.67380486357743E-03  1.50525676747637E-01
 cg2d: Sum(rhs),rhsMax =  -1.67441773334011E-03  1.50544355777043E-01
 cg2d: Sum(rhs),rhsMax =  -1.67503006438583E-03  1.50563022601238E-01
 cg2d: Sum(rhs),rhsMax =  -1.67564185667884E-03  1.50581677212110E-01
 cg2d: Sum(rhs),rhsMax =  -1.67625311056873E-03  1.50600319601567E-01
 cg2d: Sum(rhs),rhsMax =  -1.67686382625182E-03  1.50618949761540E-01
 cg2d: Sum(rhs),rhsMax =  -1.67747400342853E-03  1.50637567683983E-01
 cg2d: Sum(rhs),rhsMax =  -1.67808364273609E-03  1.50656173360868E-01
 cg2d: Sum(rhs),rhsMax =  -1.67869274388474E-03  1.50674766784193E-01
 cg2d: Sum(rhs),rhsMax =  -1.67930130761980E-03  1.50693347945978E-01
 cg2d: Sum(rhs),rhsMax =  -1.67990933391346E-03  1.50711916838263E-01
 cg2d: Sum(rhs),rhsMax =  -1.68051682268933E-03  1.50730473453111E-01
 cg2d: Sum(rhs),rhsMax =  -1.68112377422720E-03  1.50749017782606E-01
 cg2d: Sum(rhs),rhsMax =  -1.68173018894651E-03  1.50767549818858E-01
 cg2d: Sum(rhs),rhsMax =  -1.68233606654776E-03  1.50786069553993E-01
 cg2d: Sum(rhs),rhsMax =  -1.68294140734454E-03  1.50804576980166E-01
 cg2d: Sum(rhs),rhsMax =  -1.68354621200670E-03  1.50823072089551E-01
 cg2d: Sum(rhs),rhsMax =  -1.68415047995637E-03  1.50841554874342E-01
 cg2d: Sum(rhs),rhsMax =  -1.68475421138852E-03  1.50860025326760E-01
 cg2d: Sum(rhs),rhsMax =  -1.68535740674645E-03  1.50878483439042E-01
 cg2d: Sum(rhs),rhsMax =  -1.68596006637899E-03  1.50896929203453E-01
 cg2d: Sum(rhs),rhsMax =  -1.68656219022031E-03  1.50915362612278E-01
 cg2d: Sum(rhs),rhsMax =  -1.68716377800392E-03  1.50933783657823E-01
 cg2d: Sum(rhs),rhsMax =  -1.68776483032207E-03  1.50952192332420E-01
 cg2d: Sum(rhs),rhsMax =  -1.68836534734318E-03  1.50970588628417E-01
 cg2d: Sum(rhs),rhsMax =  -1.68896532880505E-03  1.50988972538193E-01
 cg2d: Sum(rhs),rhsMax =  -1.68956477508786E-03  1.51007344054143E-01
 cg2d: Sum(rhs),rhsMax =  -1.69016368628066E-03  1.51025703168682E-01
 cg2d: Sum(rhs),rhsMax =  -1.69076206224570E-03  1.51044049874257E-01
 cg2d: Sum(rhs),rhsMax =  -1.69135990360095E-03  1.51062384163326E-01
 cg2d: Sum(rhs),rhsMax =  -1.69195721024553E-03  1.51080706028379E-01
 cg2d: Sum(rhs),rhsMax =  -1.69255398223305E-03  1.51099015461923E-01
 cg2d: Sum(rhs),rhsMax =  -1.69315021926508E-03  1.51117312456489E-01
 cg2d: Sum(rhs),rhsMax =  -1.69374592212971E-03  1.51135597004628E-01
 cg2d: Sum(rhs),rhsMax =  -1.69434109042273E-03  1.51153869098916E-01
 cg2d: Sum(rhs),rhsMax =  -1.69493572448993E-03  1.51172128731953E-01
 cg2d: Sum(rhs),rhsMax =  -1.69552982427369E-03  1.51190375896357E-01
 cg2d: Sum(rhs),rhsMax =  -1.69612339015012E-03  1.51208610584771E-01
 cg2d: Sum(rhs),rhsMax =  -1.69671642193527E-03  1.51226832789863E-01
 cg2d: Sum(rhs),rhsMax =  -1.69730891958898E-03  1.51245042504317E-01
 cg2d: Sum(rhs),rhsMax =  -1.69790088297580E-03  1.51263239720842E-01
 cg2d: Sum(rhs),rhsMax =  -1.69849231290025E-03  1.51281424432174E-01
 cg2d: Sum(rhs),rhsMax =  -1.69908320907707E-03  1.51299596631070E-01
 cg2d: Sum(rhs),rhsMax =  -1.69967357138874E-03  1.51317756310302E-01
 cg2d: Sum(rhs),rhsMax =  -1.70026340020363E-03  1.51335903462673E-01
 cg2d: Sum(rhs),rhsMax =  -1.70085269507080E-03  1.51354038081006E-01
 cg2d: Sum(rhs),rhsMax =  -1.70144145663138E-03  1.51372160158144E-01
 cg2d: Sum(rhs),rhsMax =  -1.70202968429769E-03  1.51390269686956E-01
(PID.TID 0000.0001)      cg2d_init_res =   1.56233083923070E-03
(PID.TID 0000.0001)      cg2d_iters(min,last) =      -1      81
(PID.TID 0000.0001)      cg2d_last_res =   9.46296293907484E-08
(PID.TID 0000.0001) // =======================================================
(PID.TID 0000.0001) // Begin MONITOR dynamic field statistics
(PID.TID 0000.0001) // =======================================================
(PID.TID 0000.0001) %MON time_tsnumber                =                  6048
(PID.TID 0000.0001) %MON time_secondsf                =   7.2576000000000E+06
(PID.TID 0000.0001) %MON dynstat_eta_max              =   1.5421084145616E-01
(PID.TID 0000.0001) %MON dynstat_eta_min              =  -6.3520454550036E-02
(PID.TID 0000.0001) %MON dynstat_eta_mean             =   1.2882921192523E-06
(PID.TID 0000.0001) %MON dynstat_eta_sd               =   6.5186782075294E-02
(PID.TID 0000.0001) %MON dynstat_eta_del2             =   2.1485179945501E-05
(PID.TID 0000.0001) %MON dynstat_uvel_max             =   1.0473453349366E-01
(PID.TID 0000.0001) %MON dynstat_uvel_min             =  -5.5065930902584E-02
(PID.TID 0000.0001) %MON dynstat_uvel_mean            =  -2.1092795162469E-08
(PID.TID 0000.0001) %MON dynstat_uvel_sd              =   2.8280861624092E-02
(PID.TID 0000.0001) %MON dynstat_uvel_del2            =   5.1617033600109E-05
(PID.TID 0000.0001) %MON dynstat_vvel_max             =   8.9231785782976E-02
(PID.TID 0000.0001) %MON dynstat_vvel_min             =  -6.8285103277083E-02
(PID.TID 0000.0001) %MON dynstat_vvel_mean            =   2.2468729322511E-07
(PID.TID 0000.0001) %MON dynstat_vvel_sd              =   2.5310634136361E-02
(PID.TID 0000.0001) %MON dynstat_vvel_del2            =   4.7548583948474E-05
(PID.TID 0000.0001) %MON dynstat_wvel_max             =   2.0185632331995E-08
(PID.TID 0000.0001) %MON dynstat_wvel_min             =  -1.4200889663771E-08
(PID.TID 0000.0001) %MON dynstat_wvel_mean            =   2.1964382944538E-21
(PID.TID 0000.0001) %MON dynstat_wvel_sd              =   7.4459286629600E-09
(PID.TID 0000.0001) %MON dynstat_wvel_del2            =   3.8766775977618E-12
(PID.TID 0000.0001) %MON dynstat_theta_max            =   2.0000000000000E+01
(PID.TID 0000.0001) %MON dynstat_theta_min            =   2.0000000000000E+01
(PID.TID 0000.0001) %MON dynstat_theta_mean           =   2.0000000000000E+01
(PID.TID 0000.0001) %MON dynstat_theta_sd             =   3.8014036363165E-13
(PID.TID 0000.0001) %MON dynstat_theta_del2           =   0.0000000000000E+00
(PID.TID 0000.0001) %MON dynstat_salt_max             =   3.0000000000000E+01
(PID.TID 0000.0001) %MON dynstat_salt_min             =   3.0000000000000E+01
(PID.TID 0000.0001) %MON dynstat_salt_mean            =   2.9999999999999E+01
(PID.TID 0000.0001) %MON dynstat_salt_sd              =   5.5777604757167E-13
(PID.TID 0000.0001) %MON dynstat_salt_del2            =   0.0000000000000E+00
(PID.TID 0000.0001) %MON trAdv_CFL_u_max              =   6.2805589981593E-03
(PID.TID 0000.0001) %MON trAdv_CFL_v_max              =   5.3539056365883E-03
(PID.TID 0000.0001) %MON trAdv_CFL_w_max              =   5.2926303008238E-09
(PID.TID 0000.0001) %MON advcfl_uvel_max              =   6.2840720096197E-03
(PID.TID 0000.0001) %MON advcfl_vvel_max              =   5.3539071469785E-03
(PID.TID 0000.0001) %MON advcfl_wvel_max              =   9.6891035193577E-09
(PID.TID 0000.0001) %MON advcfl_W_hf_max              =   0.0000000000000E+00
(PID.TID 0000.0001) %MON pe_b_mean                    =   4.3565467538292E-06
(PID.TID 0000.0001) %MON ke_max                       =   5.4824238189421E-03
(PID.TID 0000.0001) %MON ke_mean                      =   7.0697386115946E-04
(PID.TID 0000.0001) %MON ke_vol                       =   6.8893493896486E+15
(PID.TID 0000.0001) %MON vort_r_min                   =  -1.0460539529655E-06
(PID.TID 0000.0001) %MON vort_r_max                   =   2.3189403454189E-06
(PID.TID 0000.0001) %MON vort_a_mean                  =   1.0600000000000E-04
(PID.TID 0000.0001) %MON vort_a_sd                    =   3.5433425341454E-06
(PID.TID 0000.0001) %MON vort_p_mean                  =   1.1652272308690E-04
(PID.TID 0000.0001) %MON vort_p_sd                    =   4.1773122380294E-05
(PID.TID 0000.0001) %MON surfExpan_theta_mean         =   4.3968700285606E-20
(PID.TID 0000.0001) %MON surfExpan_salt_mean          =   6.5962998026710E-20
(PID.TID 0000.0001) // =======================================================
(PID.TID 0000.0001) // End MONITOR dynamic field statistics
(PID.TID 0000.0001) // =======================================================
 cg2d: Sum(rhs),rhsMax =  -1.70261737849257E-03  1.51408366660334E-01
 cg2d: Sum(rhs),rhsMax =  -1.70320453928113E-03  1.51426451071188E-01
 cg2d: Sum(rhs),rhsMax =  -1.70379116637591E-03  1.51444522912455E-01
 cg2d: Sum(rhs),rhsMax =  -1.70437725984340E-03  1.51462582177094E-01
 cg2d: Sum(rhs),rhsMax =  -1.70496282009735E-03  1.51480628858083E-01
 cg2d: Sum(rhs),rhsMax =  -1.70554784676301E-03  1.51498662948427E-01
 cg2d: Sum(rhs),rhsMax =  -1.70613233982847E-03  1.51516684441153E-01
 cg2d: Sum(rhs),rhsMax =  -1.70671629939304E-03  1.51534693329306E-01
 cg2d: Sum(rhs),rhsMax =  -1.70729972560843E-03  1.51552689605958E-01
 cg2d: Sum(rhs),rhsMax =  -1.70788261826124E-03  1.51570673264206E-01
 cg2d: Sum(rhs),rhsMax =  -1.70846497740565E-03  1.51588644297163E-01
 cg2d: Sum(rhs),rhsMax =  -1.70904680305365E-03  1.51606602697970E-01
 cg2d: Sum(rhs),rhsMax =  -1.70962809502451E-03  1.51624548459788E-01
 cg2d: Sum(rhs),rhsMax =  -1.71020885328651E-03  1.51642481575800E-01
 cg2d: Sum(rhs),rhsMax =  -1.71078907794357E-03  1.51660402039218E-01
 cg2d: Sum(rhs),rhsMax =  -1.71136876863513E-03  1.51678309843267E-01
 cg2d: Sum(rhs),rhsMax =  -1.71194792569902E-03  1.51696204981201E-01
 cg2d: Sum(rhs),rhsMax =  -1.71252654888496E-03  1.51714087446296E-01
 cg2d: Sum(rhs),rhsMax =  -1.71310463827952E-03  1.51731957231851E-01
 cg2d: Sum(rhs),rhsMax =  -1.71368219353444E-03  1.51749814331185E-01
 cg2d: Sum(rhs),rhsMax =  -1.71425921475105E-03  1.51767658737642E-01
 cg2d: Sum(rhs),rhsMax =  -1.71483570185416E-03  1.51785490444589E-01
 cg2d: Sum(rhs),rhsMax =  -1.71541165446960E-03  1.51803309445415E-01
 cg2d: Sum(rhs),rhsMax =  -1.71598707301924E-03  1.51821115733531E-01
 cg2d: Sum(rhs),rhsMax =  -1.71656195704643E-03  1.51838909302374E-01
 cg2d: Sum(rhs),rhsMax =  -1.71713630663545E-03  1.51856690145399E-01
 cg2d: Sum(rhs),rhsMax =  -1.71771012129964E-03  1.51874458256089E-01
 cg2d: Sum(rhs),rhsMax =  -1.71828340131041E-03  1.51892213627943E-01
 cg2d: Sum(rhs),rhsMax =  -1.71885614618490E-03  1.51909956254492E-01
 cg2d: Sum(rhs),rhsMax =  -1.71942835633708E-03  1.51927686129281E-01
 cg2d: Sum(rhs),rhsMax =  -1.72000003125514E-03  1.51945403245885E-01
 cg2d: Sum(rhs),rhsMax =  -1.72057117070228E-03  1.51963107597894E-01
 cg2d: Sum(rhs),rhsMax =  -1.72114177442153E-03  1.51980799178929E-01
 cg2d: Sum(rhs),rhsMax =  -1.72171184299455E-03  1.51998477982631E-01
 cg2d: Sum(rhs),rhsMax =  -1.72228137562421E-03  1.52016144002658E-01
 cg2d: Sum(rhs),rhsMax =  -1.72285037211720E-03  1.52033797232704E-01
 cg2d: Sum(rhs),rhsMax =  -1.72341883258351E-03  1.52051437666471E-01
 cg2d: Sum(rhs),rhsMax =  -1.72398675689138E-03  1.52069065297695E-01
 cg2d: Sum(rhs),rhsMax =  -1.72455414445027E-03  1.52086680120129E-01
 cg2d: Sum(rhs),rhsMax =  -1.72512099521315E-03  1.52104282127550E-01
 cg2d: Sum(rhs),rhsMax =  -1.72568730894286E-03  1.52121871313760E-01
 cg2d: Sum(rhs),rhsMax =  -1.72625308552555E-03  1.52139447672582E-01
 cg2d: Sum(rhs),rhsMax =  -1.72681832500165E-03  1.52157011197863E-01
 cg2d: Sum(rhs),rhsMax =  -1.72738302682687E-03  1.52174561883473E-01
 cg2d: Sum(rhs),rhsMax =  -1.72794719061702E-03  1.52192099723304E-01
 cg2d: Sum(rhs),rhsMax =  -1.72851081645237E-03  1.52209624711269E-01
 cg2d: Sum(rhs),rhsMax =  -1.72907390402710E-03  1.52227136841308E-01
 cg2d: Sum(rhs),rhsMax =  -1.72963645276928E-03  1.52244636107384E-01
 cg2d: Sum(rhs),rhsMax =  -1.73019846296662E-03  1.52262122503480E-01
 cg2d: Sum(rhs),rhsMax =  -1.73075993380434E-03  1.52279596023604E-01
 cg2d: Sum(rhs),rhsMax =  -1.73132086567840E-03  1.52297056661786E-01
 cg2d: Sum(rhs),rhsMax =  -1.73188125756484E-03  1.52314504412078E-01
 cg2d: Sum(rhs),rhsMax =  -1.73244110968123E-03  1.52331939268558E-01
 cg2d: Sum(rhs),rhsMax =  -1.73300042126571E-03  1.52349361225326E-01
 cg2d: Sum(rhs),rhsMax =  -1.73355919220376E-03  1.52366770276502E-01
 cg2d: Sum(rhs),rhsMax =  -1.73411742277499E-03  1.52384166416235E-01
 cg2d: Sum(rhs),rhsMax =  -1.73467511150636E-03  1.52401549638692E-01
 cg2d: Sum(rhs),rhsMax =  -1.73523225905084E-03  1.52418919938062E-01
 cg2d: Sum(rhs),rhsMax =  -1.73578886473538E-03  1.52436277308564E-01
 cg2d: Sum(rhs),rhsMax =  -1.73634492818302E-03  1.52453621744432E-01
 cg2d: Sum(rhs),rhsMax =  -1.73690044883197E-03  1.52470953239929E-01
 cg2d: Sum(rhs),rhsMax =  -1.73745542681722E-03  1.52488271789339E-01
 cg2d: Sum(rhs),rhsMax =  -1.73800986134668E-03  1.52505577386967E-01
 cg2d: Sum(rhs),rhsMax =  -1.73856375233060E-03  1.52522870027146E-01
 cg2d: Sum(rhs),rhsMax =  -1.73911709898674E-03  1.52540149704226E-01
 cg2d: Sum(rhs),rhsMax =  -1.73966990122578E-03  1.52557416412586E-01
 cg2d: Sum(rhs),rhsMax =  -1.74022215895157E-03  1.52574670146625E-01
 cg2d: Sum(rhs),rhsMax =  -1.74077387099903E-03  1.52591910900764E-01
 cg2d: Sum(rhs),rhsMax =  -1.74132503743383E-03  1.52609138669450E-01
 cg2d: Sum(rhs),rhsMax =  -1.74187565777310E-03  1.52626353447150E-01
 cg2d: Sum(rhs),rhsMax =  -1.74242573169475E-03  1.52643555228360E-01
 cg2d: Sum(rhs),rhsMax =  -1.74297525826575E-03  1.52660744007592E-01
(PID.TID 0000.0001)      cg2d_init_res =   1.53641365256519E-03
(PID.TID 0000.0001)      cg2d_iters(min,last) =      -1      81
(PID.TID 0000.0001)      cg2d_last_res =   9.35029852049799E-08
(PID.TID 0000.0001) // =======================================================
(PID.TID 0000.0001) // Begin MONITOR dynamic field statistics
(PID.TID 0000.0001) // =======================================================
(PID.TID 0000.0001) %MON time_tsnumber                =                  6120
(PID.TID 0000.0001) %MON time_secondsf                =   7.3440000000000E+06
(PID.TID 0000.0001) %MON dynstat_eta_max              =   1.5569114109729E-01
(PID.TID 0000.0001) %MON dynstat_eta_min              =  -6.3821315510387E-02
(PID.TID 0000.0001) %MON dynstat_eta_mean             =   1.3303062670278E-06
(PID.TID 0000.0001) %MON dynstat_eta_sd               =   6.5746984934750E-02
(PID.TID 0000.0001) %MON dynstat_eta_del2             =   2.1630605509200E-05
(PID.TID 0000.0001) %MON dynstat_uvel_max             =   1.0570951440781E-01
(PID.TID 0000.0001) %MON dynstat_uvel_min             =  -5.5679238034554E-02
(PID.TID 0000.0001) %MON dynstat_uvel_mean            =  -1.6700218588354E-08
(PID.TID 0000.0001) %MON dynstat_uvel_sd              =   2.8511962683131E-02
(PID.TID 0000.0001) %MON dynstat_uvel_del2            =   5.2173131153591E-05
(PID.TID 0000.0001) %MON dynstat_vvel_max             =   8.9167671374846E-02
(PID.TID 0000.0001) %MON dynstat_vvel_min             =  -6.8783018590288E-02
(PID.TID 0000.0001) %MON dynstat_vvel_mean            =   2.2335139212949E-07
(PID.TID 0000.0001) %MON dynstat_vvel_sd              =   2.5481700956129E-02
(PID.TID 0000.0001) %MON dynstat_vvel_del2            =   4.7341592966064E-05
(PID.TID 0000.0001) %MON dynstat_wvel_max             =   2.0158720992040E-08
(PID.TID 0000.0001) %MON dynstat_wvel_min             =  -1.4180057089543E-08
(PID.TID 0000.0001) %MON dynstat_wvel_mean            =  -4.9504402947302E-22
(PID.TID 0000.0001) %MON dynstat_wvel_sd              =   7.4139109883554E-09
(PID.TID 0000.0001) %MON dynstat_wvel_del2            =   3.8505069294737E-12
(PID.TID 0000.0001) %MON dynstat_theta_max            =   2.0000000000000E+01
(PID.TID 0000.0001) %MON dynstat_theta_min            =   2.0000000000000E+01
(PID.TID 0000.0001) %MON dynstat_theta_mean           =   2.0000000000000E+01
(PID.TID 0000.0001) %MON dynstat_theta_sd             =   3.8014036363165E-13
(PID.TID 0000.0001) %MON dynstat_theta_del2           =   0.0000000000000E+00
(PID.TID 0000.0001) %MON dynstat_salt_max             =   3.0000000000000E+01
(PID.TID 0000.0001) %MON dynstat_salt_min             =   3.0000000000000E+01
(PID.TID 0000.0001) %MON dynstat_salt_mean            =   2.9999999999999E+01
(PID.TID 0000.0001) %MON dynstat_salt_sd              =   5.5777604757167E-13
(PID.TID 0000.0001) %MON dynstat_salt_del2            =   0.0000000000000E+00
(PID.TID 0000.0001) %MON trAdv_CFL_u_max              =   6.3390607306247E-03
(PID.TID 0000.0001) %MON trAdv_CFL_v_max              =   5.3501665787305E-03
(PID.TID 0000.0001) %MON trAdv_CFL_w_max              =   5.2838275141667E-09
(PID.TID 0000.0001) %MON advcfl_uvel_max              =   6.3425708644683E-03
(PID.TID 0000.0001) %MON advcfl_vvel_max              =   5.3500602824907E-03
(PID.TID 0000.0001) %MON advcfl_wvel_max              =   9.6761860761791E-09
(PID.TID 0000.0001) %MON advcfl_W_hf_max              =   0.0000000000000E+00
(PID.TID 0000.0001) %MON pe_b_mean                    =   4.4317471759259E-06
(PID.TID 0000.0001) %MON ke_max                       =   5.5827411841053E-03
(PID.TID 0000.0001) %MON ke_mean                      =   7.1768018122176E-04
(PID.TID 0000.0001) %MON ke_vol                       =   6.8893493896486E+15
(PID.TID 0000.0001) %MON vort_r_min                   =  -1.0537006415275E-06
(PID.TID 0000.0001) %MON vort_r_max                   =   2.3422726739029E-06
(PID.TID 0000.0001) %MON vort_a_mean                  =   1.0600000000000E-04
(PID.TID 0000.0001) %MON vort_a_sd                    =   3.5436116497465E-06
(PID.TID 0000.0001) %MON vort_p_mean                  =   1.1652272308690E-04
(PID.TID 0000.0001) %MON vort_p_sd                    =   4.1773460230822E-05
(PID.TID 0000.0001) %MON surfExpan_theta_mean         =  -9.8380168209486E-21
(PID.TID 0000.0001) %MON surfExpan_salt_mean          =  -1.4733182575179E-20
(PID.TID 0000.0001) // =======================================================
(PID.TID 0000.0001) // End MONITOR dynamic field statistics
(PID.TID 0000.0001) // =======================================================
 cg2d: Sum(rhs),rhsMax =  -1.74352423755122E-03  1.52677919779382E-01
 cg2d: Sum(rhs),rhsMax =  -1.74407266901768E-03  1.52695082538296E-01
 cg2d: Sum(rhs),rhsMax =  -1.74462055206979E-03  1.52712232278918E-01
 cg2d: Sum(rhs),rhsMax =  -1.74516788625015E-03  1.52729368995853E-01
 cg2d: Sum(rhs),rhsMax =  -1.74571467108234E-03  1.52746492683732E-01
 cg2d: Sum(rhs),rhsMax =  -1.74626090599872E-03  1.52763603337211E-01
 cg2d: Sum(rhs),rhsMax =  -1.74680659032462E-03  1.52780700950967E-01
 cg2d: Sum(rhs),rhsMax =  -1.74735172443756E-03  1.52797785519699E-01
 cg2d: Sum(rhs),rhsMax =  -1.74789630648263E-03  1.52814857038133E-01
 cg2d: Sum(rhs),rhsMax =  -1.74844033657584E-03  1.52831915501013E-01
 cg2d: Sum(rhs),rhsMax =  -1.74898381456325E-03  1.52848960903112E-01
 cg2d: Sum(rhs),rhsMax =  -1.74952673915530E-03  1.52865993239220E-01
 cg2d: Sum(rhs),rhsMax =  -1.75006911007029E-03  1.52883012504158E-01
 cg2d: Sum(rhs),rhsMax =  -1.75061092712859E-03  1.52900018692761E-01
 cg2d: Sum(rhs),rhsMax =  -1.75115218920211E-03  1.52917011799894E-01
 cg2d: Sum(rhs),rhsMax =  -1.75169289610190E-03  1.52933991820443E-01
 cg2d: Sum(rhs),rhsMax =  -1.75223304696252E-03  1.52950958749318E-01
 cg2d: Sum(rhs),rhsMax =  -1.75277264126036E-03  1.52967912581451E-01
 cg2d: Sum(rhs),rhsMax =  -1.75331167828498E-03  1.52984853311798E-01
 cg2d: Sum(rhs),rhsMax =  -1.75385015746041E-03  1.53001780935339E-01
 cg2d: Sum(rhs),rhsMax =  -1.75438807813046E-03  1.53018695447073E-01
 cg2d: Sum(rhs),rhsMax =  -1.75492543990543E-03  1.53035596842030E-01
 cg2d: Sum(rhs),rhsMax =  -1.75546224170773E-03  1.53052485115257E-01
 cg2d: Sum(rhs),rhsMax =  -1.75599848290022E-03  1.53069360261826E-01
 cg2d: Sum(rhs),rhsMax =  -1.75653416336324E-03  1.53086222276833E-01
 cg2d: Sum(rhs),rhsMax =  -1.75706928167272E-03  1.53103071155396E-01
 cg2d: Sum(rhs),rhsMax =  -1.75760383740846E-03  1.53119906892656E-01
 cg2d: Sum(rhs),rhsMax =  -1.75813782996396E-03  1.53136729483782E-01
 cg2d: Sum(rhs),rhsMax =  -1.75867125866759E-03  1.53153538923958E-01
 cg2d: Sum(rhs),rhsMax =  -1.75920412261025E-03  1.53170335208398E-01
 cg2d: Sum(rhs),rhsMax =  -1.75973642127074E-03  1.53187118332340E-01
 cg2d: Sum(rhs),rhsMax =  -1.76026815377428E-03  1.53203888291037E-01
 cg2d: Sum(rhs),rhsMax =  -1.76079931921428E-03  1.53220645079777E-01
 cg2d: Sum(rhs),rhsMax =  -1.76132991688985E-03  1.53237388693858E-01
 cg2d: Sum(rhs),rhsMax =  -1.76185994612773E-03  1.53254119128612E-01
 cg2d: Sum(rhs),rhsMax =  -1.76238940592066E-03  1.53270836379392E-01
 cg2d: Sum(rhs),rhsMax =  -1.76291829558926E-03  1.53287540441572E-01
 cg2d: Sum(rhs),rhsMax =  -1.76344661440952E-03  1.53304231310549E-01
 cg2d: Sum(rhs),rhsMax =  -1.76397436150463E-03  1.53320908981746E-01
 cg2d: Sum(rhs),rhsMax =  -1.76450153574954E-03  1.53337573450608E-01
 cg2d: Sum(rhs),rhsMax =  -1.76502813662676E-03  1.53354224712603E-01
 cg2d: Sum(rhs),rhsMax =  -1.76555416299598E-03  1.53370862763222E-01
 cg2d: Sum(rhs),rhsMax =  -1.76607961398938E-03  1.53387487597981E-01
 cg2d: Sum(rhs),rhsMax =  -1.76660448913575E-03  1.53404099212417E-01
 cg2d: Sum(rhs),rhsMax =  -1.76712878694204E-03  1.53420697602095E-01
 cg2d: Sum(rhs),rhsMax =  -1.76765250713936E-03  1.53437282762595E-01
 cg2d: Sum(rhs),rhsMax =  -1.76817564825637E-03  1.53453854689529E-01
 cg2d: Sum(rhs),rhsMax =  -1.76869820969147E-03  1.53470413378528E-01
 cg2d: Sum(rhs),rhsMax =  -1.76922019000314E-03  1.53486958825247E-01
 cg2d: Sum(rhs),rhsMax =  -1.76974158908519E-03  1.53503491025366E-01
 cg2d: Sum(rhs),rhsMax =  -1.77026240504575E-03  1.53520009974583E-01
 cg2d: Sum(rhs),rhsMax =  -1.77078263741310E-03  1.53536515668625E-01
 cg2d: Sum(rhs),rhsMax =  -1.77130228524879E-03  1.53553008103242E-01
 cg2d: Sum(rhs),rhsMax =  -1.77182134744824E-03  1.53569487274203E-01
 cg2d: Sum(rhs),rhsMax =  -1.77233982273559E-03  1.53585953177308E-01
 cg2d: Sum(rhs),rhsMax =  -1.77285771032501E-03  1.53602405808370E-01
 cg2d: Sum(rhs),rhsMax =  -1.77337500874704E-03  1.53618845163235E-01
 cg2d: Sum(rhs),rhsMax =  -1.77389171747371E-03  1.53635271237767E-01
 cg2d: Sum(rhs),rhsMax =  -1.77440783528370E-03  1.53651684027857E-01
 cg2d: Sum(rhs),rhsMax =  -1.77492336097142E-03  1.53668083529409E-01
 cg2d: Sum(rhs),rhsMax =  -1.77543829372814E-03  1.53684469738368E-01
 cg2d: Sum(rhs),rhsMax =  -1.77595263207157E-03  1.53700842650691E-01
 cg2d: Sum(rhs),rhsMax =  -1.77646637498924E-03  1.53717202262357E-01
 cg2d: Sum(rhs),rhsMax =  -1.77697952149927E-03  1.53733548569374E-01
 cg2d: Sum(rhs),rhsMax =  -1.77749207031426E-03  1.53749881567772E-01
 cg2d: Sum(rhs),rhsMax =  -1.77800402020246E-03  1.53766201253599E-01
 cg2d: Sum(rhs),rhsMax =  -1.77851536979026E-03  1.53782507622937E-01
 cg2d: Sum(rhs),rhsMax =  -1.77902611828350E-03  1.53798800671880E-01
 cg2d: Sum(rhs),rhsMax =  -1.77953626443548E-03  1.53815080396554E-01
 cg2d: Sum(rhs),rhsMax =  -1.78004580679354E-03  1.53831346793103E-01
 cg2d: Sum(rhs),rhsMax =  -1.78055474409288E-03  1.53847599857698E-01
 cg2d: Sum(rhs),rhsMax =  -1.78106307537556E-03  1.53863839586531E-01
(PID.TID 0000.0001)      cg2d_init_res =   1.51171712201396E-03
(PID.TID 0000.0001)      cg2d_iters(min,last) =      -1      81
(PID.TID 0000.0001)      cg2d_last_res =   9.23859729022152E-08
(PID.TID 0000.0001) // =======================================================
(PID.TID 0000.0001) // Begin MONITOR dynamic field statistics
(PID.TID 0000.0001) // =======================================================
(PID.TID 0000.0001) %MON time_tsnumber                =                  6192
(PID.TID 0000.0001) %MON time_secondsf                =   7.4304000000000E+06
(PID.TID 0000.0001) %MON dynstat_eta_max              =   1.5716182810316E-01
(PID.TID 0000.0001) %MON dynstat_eta_min              =  -6.4121203728317E-02
(PID.TID 0000.0001) %MON dynstat_eta_mean             =   1.3700387893971E-06
(PID.TID 0000.0001) %MON dynstat_eta_sd               =   6.6304683721095E-02
(PID.TID 0000.0001) %MON dynstat_eta_del2             =   2.1774709322897E-05
(PID.TID 0000.0001) %MON dynstat_uvel_max             =   1.0664955409829E-01
(PID.TID 0000.0001) %MON dynstat_uvel_min             =  -5.6289472595489E-02
(PID.TID 0000.0001) %MON dynstat_uvel_mean            =  -1.2501239825662E-08
(PID.TID 0000.0001) %MON dynstat_uvel_sd              =   2.8740672191098E-02
(PID.TID 0000.0001) %MON dynstat_uvel_del2            =   5.2721651107924E-05
(PID.TID 0000.0001) %MON dynstat_vvel_max             =   8.8976593074742E-02
(PID.TID 0000.0001) %MON dynstat_vvel_min             =  -6.9266408509779E-02
(PID.TID 0000.0001) %MON dynstat_vvel_mean            =   2.2188778135816E-07
(PID.TID 0000.0001) %MON dynstat_vvel_sd              =   2.5651651543892E-02
(PID.TID 0000.0001) %MON dynstat_vvel_del2            =   4.7117696967477E-05
(PID.TID 0000.0001) %MON dynstat_wvel_max             =   2.0132050607936E-08
(PID.TID 0000.0001) %MON dynstat_wvel_min             =  -1.4155405311612E-08
(PID.TID 0000.0001) %MON dynstat_wvel_mean            =   6.0527226095372E-22
(PID.TID 0000.0001) %MON dynstat_wvel_sd              =   7.3822147137754E-09
(PID.TID 0000.0001) %MON dynstat_wvel_del2            =   3.8232725870464E-12
(PID.TID 0000.0001) %MON dynstat_theta_max            =   2.0000000000000E+01
(PID.TID 0000.0001) %MON dynstat_theta_min            =   2.0000000000000E+01
(PID.TID 0000.0001) %MON dynstat_theta_mean           =   2.0000000000000E+01
(PID.TID 0000.0001) %MON dynstat_theta_sd             =   3.8014036363165E-13
(PID.TID 0000.0001) %MON dynstat_theta_del2           =   0.0000000000000E+00
(PID.TID 0000.0001) %MON dynstat_salt_max             =   3.0000000000000E+01
(PID.TID 0000.0001) %MON dynstat_salt_min             =   3.0000000000000E+01
(PID.TID 0000.0001) %MON dynstat_salt_mean            =   2.9999999999999E+01
(PID.TID 0000.0001) %MON dynstat_salt_sd              =   5.5777604757167E-13
(PID.TID 0000.0001) %MON dynstat_salt_del2            =   0.0000000000000E+00
(PID.TID 0000.0001) %MON trAdv_CFL_u_max              =   6.3954692394528E-03
(PID.TID 0000.0001) %MON trAdv_CFL_v_max              =   5.3388054900355E-03
(PID.TID 0000.0001) %MON trAdv_CFL_w_max              =   5.2764739385088E-09
(PID.TID 0000.0001) %MON advcfl_uvel_max              =   6.3989732458972E-03
(PID.TID 0000.0001) %MON advcfl_vvel_max              =   5.3385955844845E-03
(PID.TID 0000.0001) %MON advcfl_wvel_max              =   9.6633842918091E-09
(PID.TID 0000.0001) %MON advcfl_W_hf_max              =   0.0000000000000E+00
(PID.TID 0000.0001) %MON pe_b_mean                    =   4.5072506416736E-06
(PID.TID 0000.0001) %MON ke_max                       =   5.6800777020003E-03
(PID.TID 0000.0001) %MON ke_mean                      =   7.2837207168880E-04
(PID.TID 0000.0001) %MON ke_vol                       =   6.8893493896486E+15
(PID.TID 0000.0001) %MON vort_r_min                   =  -1.0609413679362E-06
(PID.TID 0000.0001) %MON vort_r_max                   =   2.3648468923074E-06
(PID.TID 0000.0001) %MON vort_a_mean                  =   1.0600000000000E-04
(PID.TID 0000.0001) %MON vort_a_sd                    =   3.5438750861509E-06
(PID.TID 0000.0001) %MON vort_p_mean                  =   1.1652272308690E-04
(PID.TID 0000.0001) %MON vort_p_sd                    =   4.1773788786226E-05
(PID.TID 0000.0001) %MON surfExpan_theta_mean         =   1.2130385584896E-20
(PID.TID 0000.0001) %MON surfExpan_salt_mean          =   1.8211999809460E-20
(PID.TID 0000.0001) // =======================================================
(PID.TID 0000.0001) // End MONITOR dynamic field statistics
(PID.TID 0000.0001) // =======================================================
 cg2d: Sum(rhs),rhsMax =  -1.78157079889615E-03  1.53880065975819E-01
 cg2d: Sum(rhs),rhsMax =  -1.78207791375991E-03  1.53896279021800E-01
 cg2d: Sum(rhs),rhsMax =  -1.78258441908408E-03  1.53912478720740E-01
 cg2d: Sum(rhs),rhsMax =  -1.78309031287706E-03  1.53928665068923E-01
 cg2d: Sum(rhs),rhsMax =  -1.78359559361767E-03  1.53944838062658E-01
 cg2d: Sum(rhs),rhsMax =  -1.78410026079886E-03  1.53960997698282E-01
 cg2d: Sum(rhs),rhsMax =  -1.78460431226173E-03  1.53977143972148E-01
 cg2d: Sum(rhs),rhsMax =  -1.78510774733444E-03  1.53993276880640E-01
 cg2d: Sum(rhs),rhsMax =  -1.78561056397550E-03  1.54009396420157E-01
 cg2d: Sum(rhs),rhsMax =  -1.78611276128900E-03  1.54025502587128E-01
 cg2d: Sum(rhs),rhsMax =  -1.78661433740598E-03  1.54041595378006E-01
 cg2d: Sum(rhs),rhsMax =  -1.78711529153743E-03  1.54057674789258E-01
 cg2d: Sum(rhs),rhsMax =  -1.78761562167747E-03  1.54073740817390E-01
 cg2d: Sum(rhs),rhsMax =  -1.78811532666329E-03  1.54089793458913E-01
 cg2d: Sum(rhs),rhsMax =  -1.78861440481834E-03  1.54105832710379E-01
 cg2d: Sum(rhs),rhsMax =  -1.78911285478594E-03  1.54121858568350E-01
 cg2d: Sum(rhs),rhsMax =  -1.78961067497396E-03  1.54137871029421E-01
 cg2d: Sum(rhs),rhsMax =  -1.79010786402135E-03  1.54153870090204E-01
 cg2d: Sum(rhs),rhsMax =  -1.79060442002279E-03  1.54169855747336E-01
 cg2d: Sum(rhs),rhsMax =  -1.79110034180264E-03  1.54185827997479E-01
 cg2d: Sum(rhs),rhsMax =  -1.79159562787543E-03  1.54201786837319E-01
 cg2d: Sum(rhs),rhsMax =  -1.79209027612412E-03  1.54217732263559E-01
 cg2d: Sum(rhs),rhsMax =  -1.79258428531337E-03  1.54233664272934E-01
 cg2d: Sum(rhs),rhsMax =  -1.79307765366575E-03  1.54249582862201E-01
 cg2d: Sum(rhs),rhsMax =  -1.79357037996542E-03  1.54265488028132E-01
 cg2d: Sum(rhs),rhsMax =  -1.79406246222674E-03  1.54281379767531E-01
 cg2d: Sum(rhs),rhsMax =  -1.79455389894220E-03  1.54297258077226E-01
 cg2d: Sum(rhs),rhsMax =  -1.79504468801705E-03  1.54313122954062E-01
 cg2d: Sum(rhs),rhsMax =  -1.79553482812439E-03  1.54328974394910E-01
 cg2d: Sum(rhs),rhsMax =  -1.79602431723997E-03  1.54344812396667E-01
 cg2d: Sum(rhs),rhsMax =  -1.79651315405918E-03  1.54360636956253E-01
 cg2d: Sum(rhs),rhsMax =  -1.79700133639379E-03  1.54376448070608E-01
 cg2d: Sum(rhs),rhsMax =  -1.79748886277161E-03  1.54392245736696E-01
 cg2d: Sum(rhs),rhsMax =  -1.79797573135141E-03  1.54408029951508E-01
 cg2d: Sum(rhs),rhsMax =  -1.79846193997388E-03  1.54423800712054E-01
 cg2d: Sum(rhs),rhsMax =  -1.79894748749229E-03  1.54439558015370E-01
 cg2d: Sum(rhs),rhsMax =  -1.79943237160601E-03  1.54455301858519E-01
 cg2d: Sum(rhs),rhsMax =  -1.79991659045695E-03  1.54471032238577E-01
 cg2d: Sum(rhs),rhsMax =  -1.80040014243188E-03  1.54486749152656E-01
 cg2d: Sum(rhs),rhsMax =  -1.80088302516044E-03  1.54502452597878E-01
 cg2d: Sum(rhs),rhsMax =  -1.80136523724511E-03  1.54518142571403E-01
 cg2d: Sum(rhs),rhsMax =  -1.80184677668403E-03  1.54533819070402E-01
 cg2d: Sum(rhs),rhsMax =  -1.80232764118220E-03  1.54549482092077E-01
 cg2d: Sum(rhs),rhsMax =  -1.80280782893721E-03  1.54565131633646E-01
 cg2d: Sum(rhs),rhsMax =  -1.80328733815423E-03  1.54580767692364E-01
 cg2d: Sum(rhs),rhsMax =  -1.80376616658025E-03  1.54596390265490E-01
 cg2d: Sum(rhs),rhsMax =  -1.80424431212887E-03  1.54611999350326E-01
 cg2d: Sum(rhs),rhsMax =  -1.80472177306010E-03  1.54627594944181E-01
 cg2d: Sum(rhs),rhsMax =  -1.80519854697581E-03  1.54643177044400E-01
 cg2d: Sum(rhs),rhsMax =  -1.80567463220419E-03  1.54658745648342E-01
 cg2d: Sum(rhs),rhsMax =  -1.80615002616595E-03  1.54674300753397E-01
 cg2d: Sum(rhs),rhsMax =  -1.80662472694426E-03  1.54689842356972E-01
 cg2d: Sum(rhs),rhsMax =  -1.80709873244454E-03  1.54705370456501E-01
 cg2d: Sum(rhs),rhsMax =  -1.80757204043891E-03  1.54720885049441E-01
 cg2d: Sum(rhs),rhsMax =  -1.80804464886100E-03  1.54736386133273E-01
 cg2d: Sum(rhs),rhsMax =  -1.80851655575801E-03  1.54751873705497E-01
 cg2d: Sum(rhs),rhsMax =  -1.80898775810935E-03  1.54767347763643E-01
 cg2d: Sum(rhs),rhsMax =  -1.80945825448023E-03  1.54782808305260E-01
 cg2d: Sum(rhs),rhsMax =  -1.80992804196124E-03  1.54798255327919E-01
 cg2d: Sum(rhs),rhsMax =  -1.81039711872201E-03  1.54813688829218E-01
 cg2d: Sum(rhs),rhsMax =  -1.81086548218507E-03  1.54829108806781E-01
 cg2d: Sum(rhs),rhsMax =  -1.81133313050325E-03  1.54844515258246E-01
 cg2d: Sum(rhs),rhsMax =  -1.81180006086274E-03  1.54859908181282E-01
 cg2d: Sum(rhs),rhsMax =  -1.81226627069516E-03  1.54875287573576E-01
 cg2d: Sum(rhs),rhsMax =  -1.81273175814309E-03  1.54890653432849E-01
 cg2d: Sum(rhs),rhsMax =  -1.81319652070189E-03  1.54906005756830E-01
 cg2d: Sum(rhs),rhsMax =  -1.81366055573027E-03  1.54921344543283E-01
 cg2d: Sum(rhs),rhsMax =  -1.81412386106583E-03  1.54936669789992E-01
 cg2d: Sum(rhs),rhsMax =  -1.81458643375348E-03  1.54951981494762E-01
 cg2d: Sum(rhs),rhsMax =  -1.81504827167598E-03  1.54967279655423E-01
 cg2d: Sum(rhs),rhsMax =  -1.81550937240639E-03  1.54982564269830E-01
 cg2d: Sum(rhs),rhsMax =  -1.81596973278042E-03  1.54997835335858E-01
(PID.TID 0000.0001)      cg2d_init_res =   1.48813091208057E-03
(PID.TID 0000.0001)      cg2d_iters(min,last) =      -1      81
(PID.TID 0000.0001)      cg2d_last_res =   9.01372588011746E-08
(PID.TID 0000.0001) // =======================================================
(PID.TID 0000.0001) // Begin MONITOR dynamic field statistics
(PID.TID 0000.0001) // =======================================================
(PID.TID 0000.0001) %MON time_tsnumber                =                  6264
(PID.TID 0000.0001) %MON time_secondsf                =   7.5168000000000E+06
(PID.TID 0000.0001) %MON dynstat_eta_max              =   1.5862311837441E-01
(PID.TID 0000.0001) %MON dynstat_eta_min              =  -6.4417636103282E-02
(PID.TID 0000.0001) %MON dynstat_eta_mean             =   1.4071302716014E-06
(PID.TID 0000.0001) %MON dynstat_eta_sd               =   6.6859895629738E-02
(PID.TID 0000.0001) %MON dynstat_eta_del2             =   2.1917341488866E-05
(PID.TID 0000.0001) %MON dynstat_uvel_max             =   1.0755199079854E-01
(PID.TID 0000.0001) %MON dynstat_uvel_min             =  -5.6902321467772E-02
(PID.TID 0000.0001) %MON dynstat_uvel_mean            =  -8.3744147513536E-09
(PID.TID 0000.0001) %MON dynstat_uvel_sd              =   2.8967187581587E-02
(PID.TID 0000.0001) %MON dynstat_uvel_del2            =   5.3261543070111E-05
(PID.TID 0000.0001) %MON dynstat_vvel_max             =   8.8664479260363E-02
(PID.TID 0000.0001) %MON dynstat_vvel_min             =  -6.9736696827044E-02
(PID.TID 0000.0001) %MON dynstat_vvel_mean            =   2.2028570317011E-07
(PID.TID 0000.0001) %MON dynstat_vvel_sd              =   2.5820511350836E-02
(PID.TID 0000.0001) %MON dynstat_vvel_del2            =   4.6878426999877E-05
(PID.TID 0000.0001) %MON dynstat_wvel_max             =   2.0088395855855E-08
(PID.TID 0000.0001) %MON dynstat_wvel_min             =  -1.4116178430850E-08
(PID.TID 0000.0001) %MON dynstat_wvel_mean            =   6.1227202271160E-21
(PID.TID 0000.0001) %MON dynstat_wvel_sd              =   7.3508230561694E-09
(PID.TID 0000.0001) %MON dynstat_wvel_del2            =   3.7950454892478E-12
(PID.TID 0000.0001) %MON dynstat_theta_max            =   2.0000000000000E+01
(PID.TID 0000.0001) %MON dynstat_theta_min            =   2.0000000000000E+01
(PID.TID 0000.0001) %MON dynstat_theta_mean           =   2.0000000000000E+01
(PID.TID 0000.0001) %MON dynstat_theta_sd             =   3.8014036363165E-13
(PID.TID 0000.0001) %MON dynstat_theta_del2           =   0.0000000000000E+00
(PID.TID 0000.0001) %MON dynstat_salt_max             =   3.0000000000000E+01
(PID.TID 0000.0001) %MON dynstat_salt_min             =   3.0000000000000E+01
(PID.TID 0000.0001) %MON dynstat_salt_mean            =   2.9999999999999E+01
(PID.TID 0000.0001) %MON dynstat_salt_sd              =   5.5777604757167E-13
(PID.TID 0000.0001) %MON dynstat_salt_del2            =   0.0000000000000E+00
(PID.TID 0000.0001) %MON trAdv_CFL_u_max              =   6.4496246141758E-03
(PID.TID 0000.0001) %MON trAdv_CFL_v_max              =   5.3201766220814E-03
(PID.TID 0000.0001) %MON trAdv_CFL_w_max              =   5.2718572277224E-09
(PID.TID 0000.0001) %MON advcfl_uvel_max              =   6.4531194479125E-03
(PID.TID 0000.0001) %MON advcfl_vvel_max              =   5.3198687556218E-03
(PID.TID 0000.0001) %MON advcfl_wvel_max              =   9.6424300108105E-09
(PID.TID 0000.0001) %MON advcfl_W_hf_max              =   0.0000000000000E+00
(PID.TID 0000.0001) %MON pe_b_mean                    =   4.5830509179051E-06
(PID.TID 0000.0001) %MON ke_max                       =   5.7779743150253E-03
(PID.TID 0000.0001) %MON ke_mean                      =   7.3905362216406E-04
(PID.TID 0000.0001) %MON ke_vol                       =   6.8893493896486E+15
(PID.TID 0000.0001) %MON vort_r_min                   =  -1.0677908543486E-06
(PID.TID 0000.0001) %MON vort_r_max                   =   2.3866216757841E-06
(PID.TID 0000.0001) %MON vort_a_mean                  =   1.0600000000000E-04
(PID.TID 0000.0001) %MON vort_a_sd                    =   3.5441328415141E-06
(PID.TID 0000.0001) %MON vort_p_mean                  =   1.1652272308690E-04
(PID.TID 0000.0001) %MON vort_p_sd                    =   4.1774109501022E-05
(PID.TID 0000.0001) %MON surfExpan_theta_mean         =   1.2250767314173E-19
(PID.TID 0000.0001) %MON surfExpan_salt_mean          =   1.8375519377716E-19
(PID.TID 0000.0001) // =======================================================
(PID.TID 0000.0001) // End MONITOR dynamic field statistics
(PID.TID 0000.0001) // =======================================================
 cg2d: Sum(rhs),rhsMax =  -1.81642935087448E-03  1.55013092851408E-01
 cg2d: Sum(rhs),rhsMax =  -1.81688822395639E-03  1.55028336814404E-01
 cg2d: Sum(rhs),rhsMax =  -1.81734634927804E-03  1.55043567222792E-01
 cg2d: Sum(rhs),rhsMax =  -1.81780372437937E-03  1.55058784074541E-01
 cg2d: Sum(rhs),rhsMax =  -1.81826034629517E-03  1.55073987367645E-01
 cg2d: Sum(rhs),rhsMax =  -1.81871621277580E-03  1.55089177100123E-01
 cg2d: Sum(rhs),rhsMax =  -1.81917132058837E-03  1.55104353270013E-01
 cg2d: Sum(rhs),rhsMax =  -1.81962566735729E-03  1.55119515875378E-01
 cg2d: Sum(rhs),rhsMax =  -1.82007925027417E-03  1.55134664914302E-01
 cg2d: Sum(rhs),rhsMax =  -1.82053206709142E-03  1.55149800384900E-01
 cg2d: Sum(rhs),rhsMax =  -1.82098411407469E-03  1.55164922285302E-01
 cg2d: Sum(rhs),rhsMax =  -1.82143538914188E-03  1.55180030613665E-01
 cg2d: Sum(rhs),rhsMax =  -1.82188588874503E-03  1.55195125368168E-01
 cg2d: Sum(rhs),rhsMax =  -1.82233561053429E-03  1.55210206547016E-01
 cg2d: Sum(rhs),rhsMax =  -1.82291300313293E-03  1.55225274183835E-01
 cg2d: Sum(rhs),rhsMax =  -1.82348951742116E-03  1.55240328154434E-01
 cg2d: Sum(rhs),rhsMax =  -1.82406510908830E-03  1.55255368584943E-01
 cg2d: Sum(rhs),rhsMax =  -1.82463977608614E-03  1.55270395437123E-01
 cg2d: Sum(rhs),rhsMax =  -1.82521351035132E-03  1.55285408704182E-01
 cg2d: Sum(rhs),rhsMax =  -1.82578630739218E-03  1.55300408385488E-01
 cg2d: Sum(rhs),rhsMax =  -1.82635816398450E-03  1.55315394478920E-01
 cg2d: Sum(rhs),rhsMax =  -1.82692907741595E-03  1.55330366982332E-01
 cg2d: Sum(rhs),rhsMax =  -1.82749904428265E-03  1.55345325894213E-01
 cg2d: Sum(rhs),rhsMax =  -1.82806805989181E-03  1.55360271213429E-01
 cg2d: Sum(rhs),rhsMax =  -1.82863611975052E-03  1.55375202938831E-01
 cg2d: Sum(rhs),rhsMax =  -1.82920321806019E-03  1.55390121069080E-01
 cg2d: Sum(rhs),rhsMax =  -1.82976934980185E-03  1.55405025602667E-01
 cg2d: Sum(rhs),rhsMax =  -1.83033451020573E-03  1.55419916538013E-01
 cg2d: Sum(rhs),rhsMax =  -1.83089869434738E-03  1.55434793873569E-01
 cg2d: Sum(rhs),rhsMax =  -1.83146189762079E-03  1.55449657607857E-01
 cg2d: Sum(rhs),rhsMax =  -1.83202411533699E-03  1.55464507739464E-01
 cg2d: Sum(rhs),rhsMax =  -1.83258534244875E-03  1.55479344267029E-01
 cg2d: Sum(rhs),rhsMax =  -1.83314557386366E-03  1.55494167189214E-01
 cg2d: Sum(rhs),rhsMax =  -1.83370480466801E-03  1.55508976504692E-01
 cg2d: Sum(rhs),rhsMax =  -1.83426302986974E-03  1.55523772212161E-01
 cg2d: Sum(rhs),rhsMax =  -1.83482024413256E-03  1.55538554310330E-01
 cg2d: Sum(rhs),rhsMax =  -1.83537644256459E-03  1.55553322797932E-01
 cg2d: Sum(rhs),rhsMax =  -1.83593161972194E-03  1.55568077673735E-01
 cg2d: Sum(rhs),rhsMax =  -1.83648577093930E-03  1.55582818936519E-01
 cg2d: Sum(rhs),rhsMax =  -1.83703889072950E-03  1.55597546585096E-01
 cg2d: Sum(rhs),rhsMax =  -1.83759097397568E-03  1.55612260618297E-01
 cg2d: Sum(rhs),rhsMax =  -1.83814201493536E-03  1.55626961034969E-01
 cg2d: Sum(rhs),rhsMax =  -1.83869200892631E-03  1.55641647833993E-01
 cg2d: Sum(rhs),rhsMax =  -1.83924095032744E-03  1.55656321014254E-01
 cg2d: Sum(rhs),rhsMax =  -1.83978883376958E-03  1.55670980574681E-01
 cg2d: Sum(rhs),rhsMax =  -1.84033565372205E-03  1.55685626514215E-01
 cg2d: Sum(rhs),rhsMax =  -1.84088140481158E-03  1.55700258831826E-01
 cg2d: Sum(rhs),rhsMax =  -1.84142608170396E-03  1.55714877526506E-01
 cg2d: Sum(rhs),rhsMax =  -1.84196967871428E-03  1.55729482597269E-01
 cg2d: Sum(rhs),rhsMax =  -1.84251219031001E-03  1.55744074043156E-01
 cg2d: Sum(rhs),rhsMax =  -1.84305361072052E-03  1.55758651863226E-01
 cg2d: Sum(rhs),rhsMax =  -1.84359393459326E-03  1.55773216056565E-01
 cg2d: Sum(rhs),rhsMax =  -1.84413315613223E-03  1.55787766622273E-01
 cg2d: Sum(rhs),rhsMax =  -1.84467126970032E-03  1.55802303559485E-01
 cg2d: Sum(rhs),rhsMax =  -1.84520826928519E-03  1.55816826867348E-01
 cg2d: Sum(rhs),rhsMax =  -1.84574414986896E-03  1.55831336545043E-01
 cg2d: Sum(rhs),rhsMax =  -1.84627890498520E-03  1.55845832591765E-01
 cg2d: Sum(rhs),rhsMax =  -1.84681252887539E-03  1.55860315006737E-01
 cg2d: Sum(rhs),rhsMax =  -1.84734501560722E-03  1.55874783789204E-01
 cg2d: Sum(rhs),rhsMax =  -1.84787635958058E-03  1.55889238938433E-01
 cg2d: Sum(rhs),rhsMax =  -1.84840655440882E-03  1.55903680453715E-01
 cg2d: Sum(rhs),rhsMax =  -1.84893559470305E-03  1.55918108334366E-01
 cg2d: Sum(rhs),rhsMax =  -1.84946347417375E-03  1.55932522579719E-01
 cg2d: Sum(rhs),rhsMax =  -1.84999018615015E-03  1.55946923189135E-01
 cg2d: Sum(rhs),rhsMax =  -1.85051572532508E-03  1.55961310162000E-01
 cg2d: Sum(rhs),rhsMax =  -1.85104008553581E-03  1.55975683497713E-01
 cg2d: Sum(rhs),rhsMax =  -1.85156326052964E-03  1.55990043195709E-01
 cg2d: Sum(rhs),rhsMax =  -1.85208524377073E-03  1.56004389255435E-01
 cg2d: Sum(rhs),rhsMax =  -1.85260602951384E-03  1.56018721676368E-01
 cg2d: Sum(rhs),rhsMax =  -1.85312561090904E-03  1.56033040458006E-01
 cg2d: Sum(rhs),rhsMax =  -1.85364398205531E-03  1.56047345599865E-01
 cg2d: Sum(rhs),rhsMax =  -1.85416113638272E-03  1.56061637101495E-01
(PID.TID 0000.0001)      cg2d_init_res =   1.46552057800297E-03
(PID.TID 0000.0001)      cg2d_iters(min,last) =      -1      80
(PID.TID 0000.0001)      cg2d_last_res =   9.65989098139625E-08
(PID.TID 0000.0001) // =======================================================
(PID.TID 0000.0001) // Begin MONITOR dynamic field statistics
(PID.TID 0000.0001) // =======================================================
(PID.TID 0000.0001) %MON time_tsnumber                =                  6336
(PID.TID 0000.0001) %MON time_secondsf                =   7.6032000000000E+06
(PID.TID 0000.0001) %MON dynstat_eta_max              =   1.6007527746248E-01
(PID.TID 0000.0001) %MON dynstat_eta_min              =  -6.4711941225828E-02
(PID.TID 0000.0001) %MON dynstat_eta_mean             =   1.4466104750388E-06
(PID.TID 0000.0001) %MON dynstat_eta_sd               =   6.7412622786369E-02
(PID.TID 0000.0001) %MON dynstat_eta_del2             =   2.2058344955446E-05
(PID.TID 0000.0001) %MON dynstat_uvel_max             =   1.0841450465103E-01
(PID.TID 0000.0001) %MON dynstat_uvel_min             =  -5.7523060503805E-02
(PID.TID 0000.0001) %MON dynstat_uvel_mean            =  -4.2006385928705E-09
(PID.TID 0000.0001) %MON dynstat_uvel_sd              =   2.9191726900726E-02
(PID.TID 0000.0001) %MON dynstat_uvel_del2            =   5.3791829533383E-05
(PID.TID 0000.0001) %MON dynstat_vvel_max             =   8.8471104487421E-02
(PID.TID 0000.0001) %MON dynstat_vvel_min             =  -7.0195471919312E-02
(PID.TID 0000.0001) %MON dynstat_vvel_mean            =   2.1852208835772E-07
(PID.TID 0000.0001) %MON dynstat_vvel_sd              =   2.5988299123894E-02
(PID.TID 0000.0001) %MON dynstat_vvel_del2            =   4.6625425587745E-05
(PID.TID 0000.0001) %MON dynstat_wvel_max             =   2.0062926510582E-08
(PID.TID 0000.0001) %MON dynstat_wvel_min             =  -1.4091562676476E-08
(PID.TID 0000.0001) %MON dynstat_wvel_mean            =  -9.4367806013906E-22
(PID.TID 0000.0001) %MON dynstat_wvel_sd              =   7.3197647176850E-09
(PID.TID 0000.0001) %MON dynstat_wvel_del2            =   3.7676766653797E-12
(PID.TID 0000.0001) %MON dynstat_theta_max            =   2.0000000000000E+01
(PID.TID 0000.0001) %MON dynstat_theta_min            =   2.0000000000000E+01
(PID.TID 0000.0001) %MON dynstat_theta_mean           =   2.0000000000000E+01
(PID.TID 0000.0001) %MON dynstat_theta_sd             =   3.8014036363165E-13
(PID.TID 0000.0001) %MON dynstat_theta_del2           =   0.0000000000000E+00
(PID.TID 0000.0001) %MON dynstat_salt_max             =   3.0000000000000E+01
(PID.TID 0000.0001) %MON dynstat_salt_min             =   3.0000000000000E+01
(PID.TID 0000.0001) %MON dynstat_salt_mean            =   2.9999999999999E+01
(PID.TID 0000.0001) %MON dynstat_salt_sd              =   5.5777604757167E-13
(PID.TID 0000.0001) %MON dynstat_salt_del2            =   0.0000000000000E+00
(PID.TID 0000.0001) %MON trAdv_CFL_u_max              =   6.5013874269165E-03
(PID.TID 0000.0001) %MON trAdv_CFL_v_max              =   5.3084688982617E-03
(PID.TID 0000.0001) %MON trAdv_CFL_w_max              =   5.2655419688608E-09
(PID.TID 0000.0001) %MON advcfl_uvel_max              =   6.5048702790617E-03
(PID.TID 0000.0001) %MON advcfl_vvel_max              =   5.3082662692453E-03
(PID.TID 0000.0001) %MON advcfl_wvel_max              =   9.6302047250792E-09
(PID.TID 0000.0001) %MON advcfl_W_hf_max              =   0.0000000000000E+00
(PID.TID 0000.0001) %MON pe_b_mean                    =   4.6591398049433E-06
(PID.TID 0000.0001) %MON ke_max                       =   5.8734219577316E-03
(PID.TID 0000.0001) %MON ke_mean                      =   7.4972955297006E-04
(PID.TID 0000.0001) %MON ke_vol                       =   6.8893493896486E+15
(PID.TID 0000.0001) %MON vort_r_min                   =  -1.0742670965910E-06
(PID.TID 0000.0001) %MON vort_r_max                   =   2.4084857691959E-06
(PID.TID 0000.0001) %MON vort_a_mean                  =   1.0600000000000E-04
(PID.TID 0000.0001) %MON vort_a_sd                    =   3.5443849449213E-06
(PID.TID 0000.0001) %MON vort_p_mean                  =   1.1652272308690E-04
(PID.TID 0000.0001) %MON vort_p_sd                    =   4.1774423777713E-05
(PID.TID 0000.0001) %MON surfExpan_theta_mean         =  -1.8844224945901E-20
(PID.TID 0000.0001) %MON surfExpan_salt_mean          =  -2.8261284670508E-20
(PID.TID 0000.0001) // =======================================================
(PID.TID 0000.0001) // End MONITOR dynamic field statistics
(PID.TID 0000.0001) // =======================================================
 cg2d: Sum(rhs),rhsMax =  -1.85467706799716E-03  1.56075914962456E-01
 cg2d: Sum(rhs),rhsMax =  -1.85519176981445E-03  1.56090179182340E-01
 cg2d: Sum(rhs),rhsMax =  -1.85570523607509E-03  1.56104429760759E-01
 cg2d: Sum(rhs),rhsMax =  -1.85621745963711E-03  1.56118666697349E-01
 cg2d: Sum(rhs),rhsMax =  -1.85672843431026E-03  1.56132889991763E-01
 cg2d: Sum(rhs),rhsMax =  -1.85723815365541E-03  1.56147099643687E-01
 cg2d: Sum(rhs),rhsMax =  -1.85774661092001E-03  1.56161295652822E-01
 cg2d: Sum(rhs),rhsMax =  -1.85825379942937E-03  1.56175478018895E-01
 cg2d: Sum(rhs),rhsMax =  -1.85875971230559E-03  1.56189646741656E-01
 cg2d: Sum(rhs),rhsMax =  -1.85926434337231E-03  1.56203801820873E-01
 cg2d: Sum(rhs),rhsMax =  -1.85976768585461E-03  1.56217943256347E-01
 cg2d: Sum(rhs),rhsMax =  -1.86026973230224E-03  1.56232071047892E-01
 cg2d: Sum(rhs),rhsMax =  -1.86077047658822E-03  1.56246185195349E-01
 cg2d: Sum(rhs),rhsMax =  -1.86126991183789E-03  1.56260285698579E-01
 cg2d: Sum(rhs),rhsMax =  -1.86176803074912E-03  1.56274372557475E-01
 cg2d: Sum(rhs),rhsMax =  -1.86226482672494E-03  1.56288445771938E-01
 cg2d: Sum(rhs),rhsMax =  -1.86276029263835E-03  1.56302505341905E-01
 cg2d: Sum(rhs),rhsMax =  -1.86325442178277E-03  1.56316551267329E-01
 cg2d: Sum(rhs),rhsMax =  -1.86374720692501E-03  1.56330583548187E-01
 cg2d: Sum(rhs),rhsMax =  -1.86423864083919E-03  1.56344602184478E-01
 cg2d: Sum(rhs),rhsMax =  -1.86472871670055E-03  1.56358607176228E-01
 cg2d: Sum(rhs),rhsMax =  -1.86521742749153E-03  1.56372598523478E-01
 cg2d: Sum(rhs),rhsMax =  -1.86570476560993E-03  1.56386576226299E-01
 cg2d: Sum(rhs),rhsMax =  -1.86619072451953E-03  1.56400540284781E-01
 cg2d: Sum(rhs),rhsMax =  -1.86667529636740E-03  1.56414490699039E-01
 cg2d: Sum(rhs),rhsMax =  -1.86715847413083E-03  1.56428427469207E-01
 cg2d: Sum(rhs),rhsMax =  -1.86764025054785E-03  1.56442350595449E-01
 cg2d: Sum(rhs),rhsMax =  -1.86812061833937E-03  1.56456260077940E-01
 cg2d: Sum(rhs),rhsMax =  -1.86859957009074E-03  1.56470155916888E-01
 cg2d: Sum(rhs),rhsMax =  -1.86907709849449E-03  1.56484038112521E-01
 cg2d: Sum(rhs),rhsMax =  -1.86955319576192E-03  1.56497906665087E-01
 cg2d: Sum(rhs),rhsMax =  -1.87002785469453E-03  1.56511761574858E-01
 cg2d: Sum(rhs),rhsMax =  -1.87050106793460E-03  1.56525602842130E-01
 cg2d: Sum(rhs),rhsMax =  -1.87097282784179E-03  1.56539430467219E-01
 cg2d: Sum(rhs),rhsMax =  -1.87144312672335E-03  1.56553244450468E-01
 cg2d: Sum(rhs),rhsMax =  -1.87191195691160E-03  1.56567044792239E-01
 cg2d: Sum(rhs),rhsMax =  -1.87237931122476E-03  1.56580831492915E-01
 cg2d: Sum(rhs),rhsMax =  -1.87284518174116E-03  1.56594604552907E-01
 cg2d: Sum(rhs),rhsMax =  -1.87330956056594E-03  1.56608363972645E-01
 cg2d: Sum(rhs),rhsMax =  -1.87377244004843E-03  1.56622109752581E-01
 cg2d: Sum(rhs),rhsMax =  -1.87423381284605E-03  1.56635841893191E-01
 cg2d: Sum(rhs),rhsMax =  -1.87469367074735E-03  1.56649560394975E-01
 cg2d: Sum(rhs),rhsMax =  -1.87515200648351E-03  1.56663265258452E-01
 cg2d: Sum(rhs),rhsMax =  -1.87560881159198E-03  1.56676956484164E-01
 cg2d: Sum(rhs),rhsMax =  -1.87606407844895E-03  1.56690634072679E-01
 cg2d: Sum(rhs),rhsMax =  -1.87651779912614E-03  1.56704298024587E-01
 cg2d: Sum(rhs),rhsMax =  -1.87696996579759E-03  1.56717948340494E-01
 cg2d: Sum(rhs),rhsMax =  -1.87754490359582E-03  1.56731585465084E-01
 cg2d: Sum(rhs),rhsMax =  -1.87811794837884E-03  1.56745208482816E-01
 cg2d: Sum(rhs),rhsMax =  -1.87868910375771E-03  1.56758817884169E-01
 cg2d: Sum(rhs),rhsMax =  -1.87925832759361E-03  1.56772413658064E-01
 cg2d: Sum(rhs),rhsMax =  -1.87982560061216E-03  1.56785995798663E-01
 cg2d: Sum(rhs),rhsMax =  -1.88039091106443E-03  1.56799564307176E-01
 cg2d: Sum(rhs),rhsMax =  -1.88095425300655E-03  1.56813119184213E-01
 cg2d: Sum(rhs),rhsMax =  -1.88151562129912E-03  1.56826660430120E-01
 cg2d: Sum(rhs),rhsMax =  -1.88207500807268E-03  1.56840188045752E-01
 cg2d: Sum(rhs),rhsMax =  -1.88275379275454E-03  1.56853701738610E-01
 cg2d: Sum(rhs),rhsMax =  -1.88343025116816E-03  1.56867202095127E-01
 cg2d: Sum(rhs),rhsMax =  -1.88410431738642E-03  1.56880688822378E-01
 cg2d: Sum(rhs),rhsMax =  -1.88488286553109E-03  1.56894161889606E-01
 cg2d: Sum(rhs),rhsMax =  -1.88565864024880E-03  1.56907621350226E-01
 cg2d: Sum(rhs),rhsMax =  -1.88643164827491E-03  1.56921067198868E-01
 cg2d: Sum(rhs),rhsMax =  -1.88720185535141E-03  1.56934499421261E-01
 cg2d: Sum(rhs),rhsMax =  -1.88796924667360E-03  1.56947918019895E-01
 cg2d: Sum(rhs),rhsMax =  -1.88873381305848E-03  1.56961322996113E-01
 cg2d: Sum(rhs),rhsMax =  -1.88949554623955E-03  1.56974714351600E-01
 cg2d: Sum(rhs),rhsMax =  -1.89025443745034E-03  1.56988092087669E-01
 cg2d: Sum(rhs),rhsMax =  -1.89101047548378E-03  1.57001456205550E-01
 cg2d: Sum(rhs),rhsMax =  -1.89176364806828E-03  1.57014806706539E-01
 cg2d: Sum(rhs),rhsMax =  -1.89251394193067E-03  1.57028143591925E-01
 cg2d: Sum(rhs),rhsMax =  -1.89326134461242E-03  1.57041466862910E-01
 cg2d: Sum(rhs),rhsMax =  -1.89400584330252E-03  1.57054776520620E-01
(PID.TID 0000.0001)      cg2d_init_res =   1.44373786307518E-03
(PID.TID 0000.0001)      cg2d_iters(min,last) =      -1      77
(PID.TID 0000.0001)      cg2d_last_res =   9.82164272723437E-08
(PID.TID 0000.0001) // =======================================================
(PID.TID 0000.0001) // Begin MONITOR dynamic field statistics
(PID.TID 0000.0001) // =======================================================
(PID.TID 0000.0001) %MON time_tsnumber                =                  6408
(PID.TID 0000.0001) %MON time_secondsf                =   7.6896000000000E+06
(PID.TID 0000.0001) %MON dynstat_eta_max              =   1.6151862666913E-01
(PID.TID 0000.0001) %MON dynstat_eta_min              =  -6.5005728652518E-02
(PID.TID 0000.0001) %MON dynstat_eta_mean             =   1.4872591657581E-06
(PID.TID 0000.0001) %MON dynstat_eta_sd               =   6.7962861014957E-02
(PID.TID 0000.0001) %MON dynstat_eta_del2             =   2.2197558079468E-05
(PID.TID 0000.0001) %MON dynstat_uvel_max             =   1.0923514325924E-01
(PID.TID 0000.0001) %MON dynstat_uvel_min             =  -5.8156293033889E-02
(PID.TID 0000.0001) %MON dynstat_uvel_mean            =   1.2656491424307E-10
(PID.TID 0000.0001) %MON dynstat_uvel_sd              =   2.9414514306145E-02
(PID.TID 0000.0001) %MON dynstat_uvel_del2            =   5.4311608437830E-05
(PID.TID 0000.0001) %MON dynstat_vvel_max             =   8.8172752462620E-02
(PID.TID 0000.0001) %MON dynstat_vvel_min             =  -7.0644467786169E-02
(PID.TID 0000.0001) %MON dynstat_vvel_mean            =   2.1656267663770E-07
(PID.TID 0000.0001) %MON dynstat_vvel_sd              =   2.6155039174380E-02
(PID.TID 0000.0001) %MON dynstat_vvel_del2            =   4.6360428066463E-05
(PID.TID 0000.0001) %MON dynstat_wvel_max             =   2.0037042256445E-08
(PID.TID 0000.0001) %MON dynstat_wvel_min             =  -1.4008415217977E-08
(PID.TID 0000.0001) %MON dynstat_wvel_mean            =  -5.0532095327880E-21
(PID.TID 0000.0001) %MON dynstat_wvel_sd              =   7.2891002037305E-09
(PID.TID 0000.0001) %MON dynstat_wvel_del2            =   3.7373923802586E-12
(PID.TID 0000.0001) %MON dynstat_theta_max            =   2.0000000000000E+01
(PID.TID 0000.0001) %MON dynstat_theta_min            =   2.0000000000000E+01
(PID.TID 0000.0001) %MON dynstat_theta_mean           =   2.0000000000000E+01
(PID.TID 0000.0001) %MON dynstat_theta_sd             =   3.8014036363165E-13
(PID.TID 0000.0001) %MON dynstat_theta_del2           =   0.0000000000000E+00
(PID.TID 0000.0001) %MON dynstat_salt_max             =   3.0000000000000E+01
(PID.TID 0000.0001) %MON dynstat_salt_min             =   3.0000000000000E+01
(PID.TID 0000.0001) %MON dynstat_salt_mean            =   2.9999999999999E+01
(PID.TID 0000.0001) %MON dynstat_salt_sd              =   5.5777604757167E-13
(PID.TID 0000.0001) %MON dynstat_salt_del2            =   0.0000000000000E+00
(PID.TID 0000.0001) %MON trAdv_CFL_u_max              =   6.5506402688900E-03
(PID.TID 0000.0001) %MON trAdv_CFL_v_max              =   5.2906575689136E-03
(PID.TID 0000.0001) %MON trAdv_CFL_w_max              =   5.2540695494748E-09
(PID.TID 0000.0001) %MON advcfl_uvel_max              =   6.5541085955543E-03
(PID.TID 0000.0001) %MON advcfl_vvel_max              =   5.2903651477572E-03
(PID.TID 0000.0001) %MON advcfl_wvel_max              =   9.6177802830935E-09
(PID.TID 0000.0001) %MON advcfl_W_hf_max              =   0.0000000000000E+00
(PID.TID 0000.0001) %MON pe_b_mean                    =   4.7355082725488E-06
(PID.TID 0000.0001) %MON ke_max                       =   5.9652187820244E-03
(PID.TID 0000.0001) %MON ke_mean                      =   7.6040512415593E-04
(PID.TID 0000.0001) %MON ke_vol                       =   6.8893493896486E+15
(PID.TID 0000.0001) %MON vort_r_min                   =  -1.0803908643369E-06
(PID.TID 0000.0001) %MON vort_r_max                   =   2.4294607676160E-06
(PID.TID 0000.0001) %MON vort_a_mean                  =   1.0600000000000E-04
(PID.TID 0000.0001) %MON vort_a_sd                    =   3.5446314482326E-06
(PID.TID 0000.0001) %MON vort_p_mean                  =   1.1652272308690E-04
(PID.TID 0000.0001) %MON vort_p_sd                    =   4.1774732930610E-05
(PID.TID 0000.0001) %MON surfExpan_theta_mean         =  -1.0099496547708E-19
(PID.TID 0000.0001) %MON surfExpan_salt_mean          =  -1.5150886964774E-19
(PID.TID 0000.0001) // =======================================================
(PID.TID 0000.0001) // End MONITOR dynamic field statistics
(PID.TID 0000.0001) // =======================================================
 cg2d: Sum(rhs),rhsMax =  -1.89474742667241E-03  1.57068072566181E-01
 cg2d: Sum(rhs),rhsMax =  -1.89548608306772E-03  1.57081355000744E-01
 cg2d: Sum(rhs),rhsMax =  -1.89622180055871E-03  1.57094623825516E-01
 cg2d: Sum(rhs),rhsMax =  -1.89695456809770E-03  1.57107879041754E-01
 cg2d: Sum(rhs),rhsMax =  -1.89768437315507E-03  1.57121120650745E-01
 cg2d: Sum(rhs),rhsMax =  -1.89841120467020E-03  1.57134348653799E-01
 cg2d: Sum(rhs),rhsMax =  -1.89913505001911E-03  1.57147563052245E-01
 cg2d: Sum(rhs),rhsMax =  -1.89985589811125E-03  1.57160763847435E-01
 cg2d: Sum(rhs),rhsMax =  -1.90057373709417E-03  1.57173951040744E-01
 cg2d: Sum(rhs),rhsMax =  -1.90128855510216E-03  1.57187124633569E-01
 cg2d: Sum(rhs),rhsMax =  -1.90200034098898E-03  1.57200284627324E-01
 cg2d: Sum(rhs),rhsMax =  -1.90270908322712E-03  1.57213431023448E-01
 cg2d: Sum(rhs),rhsMax =  -1.90341477009828E-03  1.57226563823399E-01
 cg2d: Sum(rhs),rhsMax =  -1.90411739036850E-03  1.57239683028652E-01
 cg2d: Sum(rhs),rhsMax =  -1.90481693229738E-03  1.57252788640704E-01
 cg2d: Sum(rhs),rhsMax =  -1.90551338480102E-03  1.57265880661080E-01
 cg2d: Sum(rhs),rhsMax =  -1.90620673660318E-03  1.57278959091320E-01
 cg2d: Sum(rhs),rhsMax =  -1.90689697657280E-03  1.57292023932995E-01
 cg2d: Sum(rhs),rhsMax =  -1.90758409331179E-03  1.57305075187692E-01
 cg2d: Sum(rhs),rhsMax =  -1.90826807550279E-03  1.57318112857027E-01
 cg2d: Sum(rhs),rhsMax =  -1.90894891257484E-03  1.57331136942635E-01
 cg2d: Sum(rhs),rhsMax =  -1.90962659324137E-03  1.57344147446170E-01
 cg2d: Sum(rhs),rhsMax =  -1.91030110674774E-03  1.57357144369313E-01
 cg2d: Sum(rhs),rhsMax =  -1.91097244202927E-03  1.57370127713763E-01
 cg2d: Sum(rhs),rhsMax =  -1.91164058828773E-03  1.57383097481238E-01
 cg2d: Sum(rhs),rhsMax =  -1.91230553495031E-03  1.57396053673482E-01
 cg2d: Sum(rhs),rhsMax =  -1.91296727120975E-03  1.57408996292262E-01
 cg2d: Sum(rhs),rhsMax =  -1.91362578645191E-03  1.57421925339360E-01
 cg2d: Sum(rhs),rhsMax =  -1.91428107034990E-03  1.57434840816587E-01
 cg2d: Sum(rhs),rhsMax =  -1.91493311257110E-03  1.57447742725775E-01
 cg2d: Sum(rhs),rhsMax =  -1.91558190239587E-03  1.57460631068775E-01
 cg2d: Sum(rhs),rhsMax =  -1.91622742966722E-03  1.57473505847464E-01
 cg2d: Sum(rhs),rhsMax =  -1.91686968442523E-03  1.57486367063733E-01
 cg2d: Sum(rhs),rhsMax =  -1.91750865608637E-03  1.57499214719504E-01
 cg2d: Sum(rhs),rhsMax =  -1.91814433554323E-03  1.57512048816717E-01
 cg2d: Sum(rhs),rhsMax =  -1.91877671194717E-03  1.57524869357330E-01
 cg2d: Sum(rhs),rhsMax =  -1.91940577602749E-03  1.57537676343328E-01
 cg2d: Sum(rhs),rhsMax =  -1.92003151785792E-03  1.57550469776716E-01
 cg2d: Sum(rhs),rhsMax =  -1.92065392784419E-03  1.57563249659519E-01
 cg2d: Sum(rhs),rhsMax =  -1.92127299652262E-03  1.57576015993786E-01
 cg2d: Sum(rhs),rhsMax =  -1.92188871450762E-03  1.57588768781588E-01
 cg2d: Sum(rhs),rhsMax =  -1.92250107237524E-03  1.57601508025014E-01
 cg2d: Sum(rhs),rhsMax =  -1.92311006105029E-03  1.57614233726179E-01
 cg2d: Sum(rhs),rhsMax =  -1.92371567124094E-03  1.57626945887217E-01
 cg2d: Sum(rhs),rhsMax =  -1.92431789412545E-03  1.57639644510286E-01
 cg2d: Sum(rhs),rhsMax =  -1.92491672115051E-03  1.57652329597562E-01
 cg2d: Sum(rhs),rhsMax =  -1.92551214321950E-03  1.57665001151247E-01
 cg2d: Sum(rhs),rhsMax =  -1.92610415198976E-03  1.57677659173558E-01
 cg2d: Sum(rhs),rhsMax =  -1.92669273848221E-03  1.57690303666742E-01
 cg2d: Sum(rhs),rhsMax =  -1.92727789515832E-03  1.57702934633062E-01
 cg2d: Sum(rhs),rhsMax =  -1.92785961248919E-03  1.57715552074802E-01
 cg2d: Sum(rhs),rhsMax =  -1.92843788384765E-03  1.57728155994273E-01
 cg2d: Sum(rhs),rhsMax =  -1.92901270049838E-03  1.57740746393802E-01
 cg2d: Sum(rhs),rhsMax =  -1.92958405468164E-03  1.57753323275738E-01
 cg2d: Sum(rhs),rhsMax =  -1.93015193912081E-03  1.57765886642454E-01
 cg2d: Sum(rhs),rhsMax =  -1.93071634586626E-03  1.57778436496344E-01
 cg2d: Sum(rhs),rhsMax =  -1.93127726767189E-03  1.57790972839822E-01
 cg2d: Sum(rhs),rhsMax =  -1.93183469738493E-03  1.57803495675325E-01
 cg2d: Sum(rhs),rhsMax =  -1.93238862773832E-03  1.57816005005308E-01
 cg2d: Sum(rhs),rhsMax =  -1.93293905198715E-03  1.57828500832254E-01
 cg2d: Sum(rhs),rhsMax =  -1.93348596339700E-03  1.57840983158663E-01
 cg2d: Sum(rhs),rhsMax =  -1.93402935534350E-03  1.57853451987052E-01
 cg2d: Sum(rhs),rhsMax =  -1.93456922114142E-03  1.57865907319969E-01
 cg2d: Sum(rhs),rhsMax =  -1.93510555498416E-03  1.57878349159976E-01
 cg2d: Sum(rhs),rhsMax =  -1.93563835020143E-03  1.57890777509660E-01
 cg2d: Sum(rhs),rhsMax =  -1.93616760075775E-03  1.57903192371628E-01
 cg2d: Sum(rhs),rhsMax =  -1.93669330197544E-03  1.57915593748508E-01
 cg2d: Sum(rhs),rhsMax =  -1.93721544731377E-03  1.57927981642950E-01
 cg2d: Sum(rhs),rhsMax =  -1.93773403138876E-03  1.57940356057623E-01
 cg2d: Sum(rhs),rhsMax =  -1.93824904935666E-03  1.57952716995224E-01
 cg2d: Sum(rhs),rhsMax =  -1.93884387129064E-03  1.57965063995644E-01
 cg2d: Sum(rhs),rhsMax =  -1.93943491066104E-03  1.57977397966417E-01
(PID.TID 0000.0001)      cg2d_init_res =   1.42263242995047E-03
(PID.TID 0000.0001)      cg2d_iters(min,last) =      -1      76
(PID.TID 0000.0001)      cg2d_last_res =   9.97708037367291E-08
(PID.TID 0000.0001) // =======================================================
(PID.TID 0000.0001) // Begin MONITOR dynamic field statistics
(PID.TID 0000.0001) // =======================================================
(PID.TID 0000.0001) %MON time_tsnumber                =                  6480
(PID.TID 0000.0001) %MON time_secondsf                =   7.7760000000000E+06
(PID.TID 0000.0001) %MON dynstat_eta_max              =   1.6299159823434E-01
(PID.TID 0000.0001) %MON dynstat_eta_min              =  -6.5299429695884E-02
(PID.TID 0000.0001) %MON dynstat_eta_mean             =   1.5317324860861E-06
(PID.TID 0000.0001) %MON dynstat_eta_sd               =   6.8510609051382E-02
(PID.TID 0000.0001) %MON dynstat_eta_del2             =   2.2334816906637E-05
(PID.TID 0000.0001) %MON dynstat_uvel_max             =   1.1003360412080E-01
(PID.TID 0000.0001) %MON dynstat_uvel_min             =  -5.8805719734182E-02
(PID.TID 0000.0001) %MON dynstat_uvel_mean            =   4.6961249555692E-09
(PID.TID 0000.0001) %MON dynstat_uvel_sd              =   2.9635765516013E-02
(PID.TID 0000.0001) %MON dynstat_uvel_del2            =   5.4820052819368E-05
(PID.TID 0000.0001) %MON dynstat_vvel_max             =   8.7770378985111E-02
(PID.TID 0000.0001) %MON dynstat_vvel_min             =  -7.1085538682792E-02
(PID.TID 0000.0001) %MON dynstat_vvel_mean            =   2.1436498428652E-07
(PID.TID 0000.0001) %MON dynstat_vvel_sd              =   2.6320773811842E-02
(PID.TID 0000.0001) %MON dynstat_vvel_del2            =   4.6085240239443E-05
(PID.TID 0000.0001) %MON dynstat_wvel_max             =   1.9996575462865E-08
(PID.TID 0000.0001) %MON dynstat_wvel_min             =  -1.3991653840058E-08
(PID.TID 0000.0001) %MON dynstat_wvel_mean            =   6.7863589315999E-21
(PID.TID 0000.0001) %MON dynstat_wvel_sd              =   7.2589186210705E-09
(PID.TID 0000.0001) %MON dynstat_wvel_del2            =   3.7083565681555E-12
(PID.TID 0000.0001) %MON dynstat_theta_max            =   2.0000000000000E+01
(PID.TID 0000.0001) %MON dynstat_theta_min            =   2.0000000000000E+01
(PID.TID 0000.0001) %MON dynstat_theta_mean           =   2.0000000000000E+01
(PID.TID 0000.0001) %MON dynstat_theta_sd             =   3.8014036363165E-13
(PID.TID 0000.0001) %MON dynstat_theta_del2           =   0.0000000000000E+00
(PID.TID 0000.0001) %MON dynstat_salt_max             =   3.0000000000000E+01
(PID.TID 0000.0001) %MON dynstat_salt_min             =   3.0000000000000E+01
(PID.TID 0000.0001) %MON dynstat_salt_mean            =   2.9999999999999E+01
(PID.TID 0000.0001) %MON dynstat_salt_sd              =   5.5777604757167E-13
(PID.TID 0000.0001) %MON dynstat_salt_del2            =   0.0000000000000E+00
(PID.TID 0000.0001) %MON trAdv_CFL_u_max              =   6.5987410538380E-03
(PID.TID 0000.0001) %MON trAdv_CFL_v_max              =   5.2665986341912E-03
(PID.TID 0000.0001) %MON trAdv_CFL_w_max              =   5.2407167454523E-09
(PID.TID 0000.0001) %MON advcfl_uvel_max              =   6.6020162472481E-03
(PID.TID 0000.0001) %MON advcfl_vvel_max              =   5.2662227391067E-03
(PID.TID 0000.0001) %MON advcfl_wvel_max              =   9.5983562221751E-09
(PID.TID 0000.0001) %MON advcfl_W_hf_max              =   0.0000000000000E+00
(PID.TID 0000.0001) %MON pe_b_mean                    =   4.8121477187741E-06
(PID.TID 0000.0001) %MON ke_max                       =   6.0530709894348E-03
(PID.TID 0000.0001) %MON ke_mean                      =   7.7108604041910E-04
(PID.TID 0000.0001) %MON ke_vol                       =   6.8893493896486E+15
(PID.TID 0000.0001) %MON vort_r_min                   =  -1.0861850906995E-06
(PID.TID 0000.0001) %MON vort_r_max                   =   2.4494941111302E-06
(PID.TID 0000.0001) %MON vort_a_mean                  =   1.0600000000000E-04
(PID.TID 0000.0001) %MON vort_a_sd                    =   3.5448724173976E-06
(PID.TID 0000.0001) %MON vort_p_mean                  =   1.1652272308690E-04
(PID.TID 0000.0001) %MON vort_p_sd                    =   4.1775038152686E-05
(PID.TID 0000.0001) %MON surfExpan_theta_mean         =   1.3579071694241E-19
(PID.TID 0000.0001) %MON surfExpan_salt_mean          =   2.0368070686850E-19
(PID.TID 0000.0001) // =======================================================
(PID.TID 0000.0001) // End MONITOR dynamic field statistics
(PID.TID 0000.0001) // =======================================================
 cg2d: Sum(rhs),rhsMax =  -1.94002213118463E-03  1.57989718489041E-01
 cg2d: Sum(rhs),rhsMax =  -1.94060552548790E-03  1.58002025543406E-01
 cg2d: Sum(rhs),rhsMax =  -1.94118508330656E-03  1.58014319133406E-01
 cg2d: Sum(rhs),rhsMax =  -1.94176079950467E-03  1.58026599262201E-01
 cg2d: Sum(rhs),rhsMax =  -1.94233267368008E-03  1.58038865933217E-01
 cg2d: Sum(rhs),rhsMax =  -1.94290070630941E-03  1.58051119149373E-01
 cg2d: Sum(rhs),rhsMax =  -1.94346489654521E-03  1.58063358913446E-01
 cg2d: Sum(rhs),rhsMax =  -1.94402524280589E-03  1.58075585228365E-01
 cg2d: Sum(rhs),rhsMax =  -1.94458174221625E-03  1.58087798097186E-01
 cg2d: Sum(rhs),rhsMax =  -1.94513439189497E-03  1.58099997522959E-01
 cg2d: Sum(rhs),rhsMax =  -1.94568318939427E-03  1.58112183508683E-01
 cg2d: Sum(rhs),rhsMax =  -1.94622813321492E-03  1.58124356057321E-01
 cg2d: Sum(rhs),rhsMax =  -1.94676922201330E-03  1.58136515171846E-01
 cg2d: Sum(rhs),rhsMax =  -1.94730645475063E-03  1.58148660855259E-01
 cg2d: Sum(rhs),rhsMax =  -1.94783983127141E-03  1.58160793110601E-01
 cg2d: Sum(rhs),rhsMax =  -1.94836935047156E-03  1.58172911940941E-01
 cg2d: Sum(rhs),rhsMax =  -1.94889501254964E-03  1.58185017349382E-01
 cg2d: Sum(rhs),rhsMax =  -1.94941681701412E-03  1.58197109339034E-01
 cg2d: Sum(rhs),rhsMax =  -1.94993476391669E-03  1.58209187913035E-01
 cg2d: Sum(rhs),rhsMax =  -1.95044885434828E-03  1.58221253074538E-01
 cg2d: Sum(rhs),rhsMax =  -1.95095908795277E-03  1.58233304826723E-01
 cg2d: Sum(rhs),rhsMax =  -1.95146546641058E-03  1.58245343172790E-01
 cg2d: Sum(rhs),rhsMax =  -1.95196799047694E-03  1.58257368115959E-01
 cg2d: Sum(rhs),rhsMax =  -1.95246666184857E-03  1.58269379659469E-01
 cg2d: Sum(rhs),rhsMax =  -1.95296148239827E-03  1.58281377806581E-01
 cg2d: Sum(rhs),rhsMax =  -1.95345245386788E-03  1.58293362560575E-01
 cg2d: Sum(rhs),rhsMax =  -1.95393957849888E-03  1.58305333924752E-01
 cg2d: Sum(rhs),rhsMax =  -1.95442285943097E-03  1.58317291902431E-01
 cg2d: Sum(rhs),rhsMax =  -1.95490229851160E-03  1.58329236496952E-01
 cg2d: Sum(rhs),rhsMax =  -1.95537789967002E-03  1.58341167711683E-01
 cg2d: Sum(rhs),rhsMax =  -1.95584966567596E-03  1.58353085550003E-01
 cg2d: Sum(rhs),rhsMax =  -1.95631760049329E-03  1.58364990015321E-01
 cg2d: Sum(rhs),rhsMax =  -1.95678170795919E-03  1.58376881111062E-01
 cg2d: Sum(rhs),rhsMax =  -1.95724199249790E-03  1.58388758840673E-01
 cg2d: Sum(rhs),rhsMax =  -1.95769845820549E-03  1.58400623207623E-01
 cg2d: Sum(rhs),rhsMax =  -1.95815111049960E-03  1.58412474215395E-01
 cg2d: Sum(rhs),rhsMax =  -1.95859995399437E-03  1.58424311867501E-01
 cg2d: Sum(rhs),rhsMax =  -1.95904499420238E-03  1.58436136167469E-01
 cg2d: Sum(rhs),rhsMax =  -1.95948623678121E-03  1.58447947118846E-01
 cg2d: Sum(rhs),rhsMax =  -1.95992368767562E-03  1.58459744725203E-01
 cg2d: Sum(rhs),rhsMax =  -1.96035735342194E-03  1.58471528990129E-01
 cg2d: Sum(rhs),rhsMax =  -1.96078724058850E-03  1.58483299917235E-01
 cg2d: Sum(rhs),rhsMax =  -1.96121335531556E-03  1.58495057510154E-01
 cg2d: Sum(rhs),rhsMax =  -1.96163570542664E-03  1.58506801772537E-01
 cg2d: Sum(rhs),rhsMax =  -1.96205429861599E-03  1.58518532708056E-01
 cg2d: Sum(rhs),rhsMax =  -1.96246914254044E-03  1.58530250320404E-01
 cg2d: Sum(rhs),rhsMax =  -1.96288024485917E-03  1.58541954613293E-01
 cg2d: Sum(rhs),rhsMax =  -1.96328761437057E-03  1.58553645590459E-01
 cg2d: Sum(rhs),rhsMax =  -1.96369125984802E-03  1.58565323255652E-01
 cg2d: Sum(rhs),rhsMax =  -1.96409119045591E-03  1.58576987612652E-01
 cg2d: Sum(rhs),rhsMax =  -1.96448741542924E-03  1.58588638665246E-01
 cg2d: Sum(rhs),rhsMax =  -1.96487994394285E-03  1.58600276417256E-01
 cg2d: Sum(rhs),rhsMax =  -1.96526878674999E-03  1.58611900872511E-01
 cg2d: Sum(rhs),rhsMax =  -1.96565395355478E-03  1.58623512034872E-01
 cg2d: Sum(rhs),rhsMax =  -1.96603545520297E-03  1.58635109908212E-01
 cg2d: Sum(rhs),rhsMax =  -1.96641330256698E-03  1.58646694496426E-01
 cg2d: Sum(rhs),rhsMax =  -1.96678750682375E-03  1.58658265803433E-01
 cg2d: Sum(rhs),rhsMax =  -1.96715808013689E-03  1.58669823833167E-01
 cg2d: Sum(rhs),rhsMax =  -1.96752503369504E-03  1.58681368589587E-01
 cg2d: Sum(rhs),rhsMax =  -1.96788837968968E-03  1.58692900076667E-01
 cg2d: Sum(rhs),rhsMax =  -1.96824813110024E-03  1.58704418298409E-01
 cg2d: Sum(rhs),rhsMax =  -1.96860430056780E-03  1.58715923258825E-01
 cg2d: Sum(rhs),rhsMax =  -1.96895690128868E-03  1.58727414961953E-01
 cg2d: Sum(rhs),rhsMax =  -1.96930594674980E-03  1.58738893411853E-01
 cg2d: Sum(rhs),rhsMax =  -1.96965145058844E-03  1.58750358612602E-01
 cg2d: Sum(rhs),rhsMax =  -1.96999342719509E-03  1.58761810568296E-01
 cg2d: Sum(rhs),rhsMax =  -1.97033189087320E-03  1.58773249283053E-01
 cg2d: Sum(rhs),rhsMax =  -1.97066685662814E-03  1.58784674761012E-01
 cg2d: Sum(rhs),rhsMax =  -1.97099833910445E-03  1.58796087006329E-01
 cg2d: Sum(rhs),rhsMax =  -1.97132635406008E-03  1.58807486023182E-01
 cg2d: Sum(rhs),rhsMax =  -1.97165091671799E-03  1.58818871815769E-01
 cg2d: Sum(rhs),rhsMax =  -1.97197204367438E-03  1.58830244388308E-01
(PID.TID 0000.0001)      cg2d_init_res =   1.40205973285278E-03
(PID.TID 0000.0001)      cg2d_iters(min,last) =      -1      76
(PID.TID 0000.0001)      cg2d_last_res =   9.44683945271254E-08
(PID.TID 0000.0001) // =======================================================
(PID.TID 0000.0001) // Begin MONITOR dynamic field statistics
(PID.TID 0000.0001) // =======================================================
(PID.TID 0000.0001) %MON time_tsnumber                =                  6552
(PID.TID 0000.0001) %MON time_secondsf                =   7.8624000000000E+06
(PID.TID 0000.0001) %MON dynstat_eta_max              =   1.6449571544406E-01
(PID.TID 0000.0001) %MON dynstat_eta_min              =  -6.5594275877213E-02
(PID.TID 0000.0001) %MON dynstat_eta_mean             =   1.5656057042578E-06
(PID.TID 0000.0001) %MON dynstat_eta_sd               =   6.9055877853377E-02
(PID.TID 0000.0001) %MON dynstat_eta_del2             =   2.2469957213309E-05
(PID.TID 0000.0001) %MON dynstat_uvel_max             =   1.1081904593183E-01
(PID.TID 0000.0001) %MON dynstat_uvel_min             =  -5.9473951407958E-02
(PID.TID 0000.0001) %MON dynstat_uvel_mean            =   9.5655565022536E-09
(PID.TID 0000.0001) %MON dynstat_uvel_sd              =   2.9855674009007E-02
(PID.TID 0000.0001) %MON dynstat_uvel_del2            =   5.5316408339860E-05
(PID.TID 0000.0001) %MON dynstat_vvel_max             =   8.7272238308991E-02
(PID.TID 0000.0001) %MON dynstat_vvel_min             =  -7.1520628907575E-02
(PID.TID 0000.0001) %MON dynstat_vvel_mean            =   2.1188018545810E-07
(PID.TID 0000.0001) %MON dynstat_vvel_sd              =   2.6485575184404E-02
(PID.TID 0000.0001) %MON dynstat_vvel_del2            =   4.5801713370119E-05
(PID.TID 0000.0001) %MON dynstat_wvel_max             =   1.9934089186136E-08
(PID.TID 0000.0001) %MON dynstat_wvel_min             =  -1.3885144898668E-08
(PID.TID 0000.0001) %MON dynstat_wvel_mean            =   2.8672073110809E-22
(PID.TID 0000.0001) %MON dynstat_wvel_sd              =   7.2293289825266E-09
(PID.TID 0000.0001) %MON dynstat_wvel_del2            =   3.6775648232563E-12
(PID.TID 0000.0001) %MON dynstat_theta_max            =   2.0000000000000E+01
(PID.TID 0000.0001) %MON dynstat_theta_min            =   2.0000000000000E+01
(PID.TID 0000.0001) %MON dynstat_theta_mean           =   2.0000000000000E+01
(PID.TID 0000.0001) %MON dynstat_theta_sd             =   3.8014036363165E-13
(PID.TID 0000.0001) %MON dynstat_theta_del2           =   0.0000000000000E+00
(PID.TID 0000.0001) %MON dynstat_salt_max             =   3.0000000000000E+01
(PID.TID 0000.0001) %MON dynstat_salt_min             =   3.0000000000000E+01
(PID.TID 0000.0001) %MON dynstat_salt_mean            =   2.9999999999999E+01
(PID.TID 0000.0001) %MON dynstat_salt_sd              =   5.5777604757167E-13
(PID.TID 0000.0001) %MON dynstat_salt_del2            =   0.0000000000000E+00
(PID.TID 0000.0001) %MON trAdv_CFL_u_max              =   6.6458851031464E-03
(PID.TID 0000.0001) %MON trAdv_CFL_v_max              =   5.2367862641136E-03
(PID.TID 0000.0001) %MON trAdv_CFL_w_max              =   5.2212415529477E-09
(PID.TID 0000.0001) %MON advcfl_uvel_max              =   6.6491427559098E-03
(PID.TID 0000.0001) %MON advcfl_vvel_max              =   5.2363342985395E-03
(PID.TID 0000.0001) %MON advcfl_wvel_max              =   9.5683628093451E-09
(PID.TID 0000.0001) %MON advcfl_W_hf_max              =   0.0000000000000E+00
(PID.TID 0000.0001) %MON pe_b_mean                    =   4.8890513046476E-06
(PID.TID 0000.0001) %MON ke_max                       =   6.1367275151646E-03
(PID.TID 0000.0001) %MON ke_mean                      =   7.8177835609210E-04
(PID.TID 0000.0001) %MON ke_vol                       =   6.8893493896486E+15
(PID.TID 0000.0001) %MON vort_r_min                   =  -1.0916741745133E-06
(PID.TID 0000.0001) %MON vort_r_max                   =   2.4685422595368E-06
(PID.TID 0000.0001) %MON vort_a_mean                  =   1.0600000000000E-04
(PID.TID 0000.0001) %MON vort_a_sd                    =   3.5451079239843E-06
(PID.TID 0000.0001) %MON vort_p_mean                  =   1.1652272308690E-04
(PID.TID 0000.0001) %MON vort_p_sd                    =   4.1775340487805E-05
(PID.TID 0000.0001) %MON surfExpan_theta_mean         =   5.7162373599971E-21
(PID.TID 0000.0001) %MON surfExpan_salt_mean          =   8.5693032916525E-21
(PID.TID 0000.0001) // =======================================================
(PID.TID 0000.0001) // End MONITOR dynamic field statistics
(PID.TID 0000.0001) // =======================================================
 cg2d: Sum(rhs),rhsMax =  -1.97228975123924E-03  1.58841603745036E-01
 cg2d: Sum(rhs),rhsMax =  -1.97260405561076E-03  1.58852949890212E-01
 cg2d: Sum(rhs),rhsMax =  -1.97291497432920E-03  1.58864282828110E-01
 cg2d: Sum(rhs),rhsMax =  -1.97322252418856E-03  1.58875602563029E-01
 cg2d: Sum(rhs),rhsMax =  -1.97352672303353E-03  1.58886909099288E-01
 cg2d: Sum(rhs),rhsMax =  -1.97382758910480E-03  1.58898202441221E-01
 cg2d: Sum(rhs),rhsMax =  -1.97412514008057E-03  1.58909482593186E-01
 cg2d: Sum(rhs),rhsMax =  -1.97441939489791E-03  1.58920749559561E-01
 cg2d: Sum(rhs),rhsMax =  -1.97471037212422E-03  1.58932003344739E-01
 cg2d: Sum(rhs),rhsMax =  -1.97499809113307E-03  1.58943243953138E-01
 cg2d: Sum(rhs),rhsMax =  -1.97528257123334E-03  1.58954471389196E-01
 cg2d: Sum(rhs),rhsMax =  -1.97556383223024E-03  1.58965685657365E-01
 cg2d: Sum(rhs),rhsMax =  -1.97584189412620E-03  1.58976886762121E-01
 cg2d: Sum(rhs),rhsMax =  -1.97611677791797E-03  1.58988074707958E-01
 cg2d: Sum(rhs),rhsMax =  -1.97638850309115E-03  1.58999249499396E-01
 cg2d: Sum(rhs),rhsMax =  -1.97665709133055E-03  1.59010411140965E-01
 cg2d: Sum(rhs),rhsMax =  -1.97692256364753E-03  1.59021559637218E-01
 cg2d: Sum(rhs),rhsMax =  -1.97718494174743E-03  1.59032694992729E-01
 cg2d: Sum(rhs),rhsMax =  -1.97744424751820E-03  1.59043817212095E-01
 cg2d: Sum(rhs),rhsMax =  -1.97770050258507E-03  1.59054926299922E-01
 cg2d: Sum(rhs),rhsMax =  -1.97795372963440E-03  1.59066022260848E-01
 cg2d: Sum(rhs),rhsMax =  -1.97820395167187E-03  1.59077105099522E-01
 cg2d: Sum(rhs),rhsMax =  -1.97845119112008E-03  1.59088174820617E-01
 cg2d: Sum(rhs),rhsMax =  -1.97869547148748E-03  1.59099231428822E-01
 cg2d: Sum(rhs),rhsMax =  -1.97893681606011E-03  1.59110274928848E-01
 cg2d: Sum(rhs),rhsMax =  -1.97917524880845E-03  1.59121305325424E-01
 cg2d: Sum(rhs),rhsMax =  -1.97941079362511E-03  1.59132322623299E-01
 cg2d: Sum(rhs),rhsMax =  -1.97964347450104E-03  1.59143326827242E-01
 cg2d: Sum(rhs),rhsMax =  -1.97987331632335E-03  1.59154317942042E-01
 cg2d: Sum(rhs),rhsMax =  -1.98010034382319E-03  1.59165295972504E-01
 cg2d: Sum(rhs),rhsMax =  -1.98032458231191E-03  1.59176260923457E-01
 cg2d: Sum(rhs),rhsMax =  -1.98054605645581E-03  1.59187212799744E-01
 cg2d: Sum(rhs),rhsMax =  -1.98076479228898E-03  1.59198151606232E-01
 cg2d: Sum(rhs),rhsMax =  -1.98098081543443E-03  1.59209077347806E-01
 cg2d: Sum(rhs),rhsMax =  -1.98119415167327E-03  1.59219990029369E-01
 cg2d: Sum(rhs),rhsMax =  -1.98140482756427E-03  1.59230889655843E-01
 cg2d: Sum(rhs),rhsMax =  -1.98161286936994E-03  1.59241776232172E-01
 cg2d: Sum(rhs),rhsMax =  -1.98181830394380E-03  1.59252649763315E-01
 cg2d: Sum(rhs),rhsMax =  -1.98202115816955E-03  1.59263510254257E-01
 cg2d: Sum(rhs),rhsMax =  -1.98222145934499E-03  1.59274357709995E-01
 cg2d: Sum(rhs),rhsMax =  -1.98241923442187E-03  1.59285192135545E-01
 cg2d: Sum(rhs),rhsMax =  -1.98261451093999E-03  1.59296013535950E-01
 cg2d: Sum(rhs),rhsMax =  -1.98280731685035E-03  1.59306821916267E-01
 cg2d: Sum(rhs),rhsMax =  -1.98299768022684E-03  1.59317617281566E-01
 cg2d: Sum(rhs),rhsMax =  -1.98318562916378E-03  1.59328399636951E-01
 cg2d: Sum(rhs),rhsMax =  -1.98337119172045E-03  1.59339168987528E-01
 cg2d: Sum(rhs),rhsMax =  -1.98355439668013E-03  1.59349925338437E-01
 cg2d: Sum(rhs),rhsMax =  -1.98373527234650E-03  1.59360668694826E-01
 cg2d: Sum(rhs),rhsMax =  -1.98391384800971E-03  1.59371399061870E-01
 cg2d: Sum(rhs),rhsMax =  -1.98409015249351E-03  1.59382116444756E-01
 cg2d: Sum(rhs),rhsMax =  -1.98426421524584E-03  1.59392820848694E-01
 cg2d: Sum(rhs),rhsMax =  -1.98443606540281E-03  1.59403512278912E-01
 cg2d: Sum(rhs),rhsMax =  -1.98460573241995E-03  1.59414190740659E-01
 cg2d: Sum(rhs),rhsMax =  -1.98477324632768E-03  1.59424856239200E-01
 cg2d: Sum(rhs),rhsMax =  -1.98493863627393E-03  1.59435508779816E-01
 cg2d: Sum(rhs),rhsMax =  -1.98510193274568E-03  1.59446148367816E-01
 cg2d: Sum(rhs),rhsMax =  -1.98526316586155E-03  1.59456775008519E-01
 cg2d: Sum(rhs),rhsMax =  -1.98542236560903E-03  1.59467388707269E-01
 cg2d: Sum(rhs),rhsMax =  -1.98557956237047E-03  1.59477989469422E-01
 cg2d: Sum(rhs),rhsMax =  -1.98573478657461E-03  1.59488577300360E-01
 cg2d: Sum(rhs),rhsMax =  -1.98588806889664E-03  1.59499152205477E-01
 cg2d: Sum(rhs),rhsMax =  -1.98603943984747E-03  1.59509714190193E-01
 cg2d: Sum(rhs),rhsMax =  -1.98618893014379E-03  1.59520263259941E-01
 cg2d: Sum(rhs),rhsMax =  -1.98633657095261E-03  1.59530799420172E-01
 cg2d: Sum(rhs),rhsMax =  -1.98648239296646E-03  1.59541322676363E-01
 cg2d: Sum(rhs),rhsMax =  -1.98662642755795E-03  1.59551833034001E-01
 cg2d: Sum(rhs),rhsMax =  -1.98676870558217E-03  1.59562330498595E-01
 cg2d: Sum(rhs),rhsMax =  -1.98690925827718E-03  1.59572815075674E-01
 cg2d: Sum(rhs),rhsMax =  -1.98704811682945E-03  1.59583286770786E-01
 cg2d: Sum(rhs),rhsMax =  -1.98718531299011E-03  1.59593745589494E-01
 cg2d: Sum(rhs),rhsMax =  -1.98732087779599E-03  1.59604191537380E-01
 cg2d: Sum(rhs),rhsMax =  -1.98745484267402E-03  1.59614624620053E-01
(PID.TID 0000.0001)      cg2d_init_res =   1.38189091547366E-03
(PID.TID 0000.0001)      cg2d_iters(min,last) =      -1      76
(PID.TID 0000.0001)      cg2d_last_res =   9.17266414984428E-08
(PID.TID 0000.0001) // =======================================================
(PID.TID 0000.0001) // Begin MONITOR dynamic field statistics
(PID.TID 0000.0001) // =======================================================
(PID.TID 0000.0001) %MON time_tsnumber                =                  6624
(PID.TID 0000.0001) %MON time_secondsf                =   7.9488000000000E+06
(PID.TID 0000.0001) %MON dynstat_eta_max              =   1.6599131412380E-01
(PID.TID 0000.0001) %MON dynstat_eta_min              =  -6.5891491962515E-02
(PID.TID 0000.0001) %MON dynstat_eta_mean             =   1.5855306646746E-06
(PID.TID 0000.0001) %MON dynstat_eta_sd               =   6.9598699379871E-02
(PID.TID 0000.0001) %MON dynstat_eta_del2             =   2.2602816327715E-05
(PID.TID 0000.0001) %MON dynstat_uvel_max             =   1.1156059507845E-01
(PID.TID 0000.0001) %MON dynstat_uvel_min             =  -6.0162374509506E-02
(PID.TID 0000.0001) %MON dynstat_uvel_mean            =   1.4756679847313E-08
(PID.TID 0000.0001) %MON dynstat_uvel_sd              =   3.0074398864417E-02
(PID.TID 0000.0001) %MON dynstat_uvel_del2            =   5.5799989118514E-05
(PID.TID 0000.0001) %MON dynstat_vvel_max             =   8.6711696276950E-02
(PID.TID 0000.0001) %MON dynstat_vvel_min             =  -7.1951737266385E-02
(PID.TID 0000.0001) %MON dynstat_vvel_mean            =   2.0905834236155E-07
(PID.TID 0000.0001) %MON dynstat_vvel_sd              =   2.6649555418322E-02
(PID.TID 0000.0001) %MON dynstat_vvel_del2            =   4.5511717861555E-05
(PID.TID 0000.0001) %MON dynstat_wvel_max             =   1.9854069694411E-08
(PID.TID 0000.0001) %MON dynstat_wvel_min             =  -1.3866802470293E-08
(PID.TID 0000.0001) %MON dynstat_wvel_mean            =  -5.1062781696803E-21
(PID.TID 0000.0001) %MON dynstat_wvel_sd              =   7.2004738256553E-09
(PID.TID 0000.0001) %MON dynstat_wvel_del2            =   3.6466085494383E-12
(PID.TID 0000.0001) %MON dynstat_theta_max            =   2.0000000000000E+01
(PID.TID 0000.0001) %MON dynstat_theta_min            =   2.0000000000000E+01
(PID.TID 0000.0001) %MON dynstat_theta_mean           =   2.0000000000000E+01
(PID.TID 0000.0001) %MON dynstat_theta_sd             =   3.8014036363165E-13
(PID.TID 0000.0001) %MON dynstat_theta_del2           =   0.0000000000000E+00
(PID.TID 0000.0001) %MON dynstat_salt_max             =   3.0000000000000E+01
(PID.TID 0000.0001) %MON dynstat_salt_min             =   3.0000000000000E+01
(PID.TID 0000.0001) %MON dynstat_salt_mean            =   2.9999999999999E+01
(PID.TID 0000.0001) %MON dynstat_salt_sd              =   5.5777604757167E-13
(PID.TID 0000.0001) %MON dynstat_salt_del2            =   0.0000000000000E+00
(PID.TID 0000.0001) %MON trAdv_CFL_u_max              =   6.6903974504805E-03
(PID.TID 0000.0001) %MON trAdv_CFL_v_max              =   5.2030461571573E-03
(PID.TID 0000.0001) %MON trAdv_CFL_w_max              =   5.1980781721954E-09
(PID.TID 0000.0001) %MON advcfl_uvel_max              =   6.6936357047071E-03
(PID.TID 0000.0001) %MON advcfl_vvel_max              =   5.2027017766170E-03
(PID.TID 0000.0001) %MON advcfl_wvel_max              =   9.5299534533173E-09
(PID.TID 0000.0001) %MON advcfl_W_hf_max              =   0.0000000000000E+00
(PID.TID 0000.0001) %MON pe_b_mean                    =   4.9662152752378E-06
(PID.TID 0000.0001) %MON ke_max                       =   6.2159836165132E-03
(PID.TID 0000.0001) %MON ke_mean                      =   7.9248837810205E-04
(PID.TID 0000.0001) %MON ke_vol                       =   6.8893493896486E+15
(PID.TID 0000.0001) %MON vort_r_min                   =  -1.0969556474432E-06
(PID.TID 0000.0001) %MON vort_r_max                   =   2.4865711656912E-06
(PID.TID 0000.0001) %MON vort_a_mean                  =   1.0600000000000E-04
(PID.TID 0000.0001) %MON vort_a_sd                    =   3.5453380377523E-06
(PID.TID 0000.0001) %MON vort_p_mean                  =   1.1652272308690E-04
(PID.TID 0000.0001) %MON vort_p_sd                    =   4.1775640808554E-05
(PID.TID 0000.0001) %MON surfExpan_theta_mean         =  -1.0212488632533E-19
(PID.TID 0000.0001) %MON surfExpan_salt_mean          =  -1.5320406671688E-19
(PID.TID 0000.0001) // =======================================================
(PID.TID 0000.0001) // End MONITOR dynamic field statistics
(PID.TID 0000.0001) // =======================================================
 cg2d: Sum(rhs),rhsMax =  -1.98758723910521E-03  1.59625044843121E-01
 cg2d: Sum(rhs),rhsMax =  -1.98771809872815E-03  1.59635452212233E-01
 cg2d: Sum(rhs),rhsMax =  -1.98784745333124E-03  1.59645846733043E-01
 cg2d: Sum(rhs),rhsMax =  -1.98797533431552E-03  1.59656228411226E-01
 cg2d: Sum(rhs),rhsMax =  -1.98810177307018E-03  1.59666597252475E-01
 cg2d: Sum(rhs),rhsMax =  -1.98822680164211E-03  1.59676953262507E-01
 cg2d: Sum(rhs),rhsMax =  -1.98835045157147E-03  1.59687296447049E-01
 cg2d: Sum(rhs),rhsMax =  -1.98847275419973E-03  1.59697626811850E-01
 cg2d: Sum(rhs),rhsMax =  -1.98859374135561E-03  1.59707944362677E-01
 cg2d: Sum(rhs),rhsMax =  -1.98871344548481E-03  1.59718249105316E-01
 cg2d: Sum(rhs),rhsMax =  -1.98883189700097E-03  1.59728541045572E-01
 cg2d: Sum(rhs),rhsMax =  -1.98894912817524E-03  1.59738820189266E-01
 cg2d: Sum(rhs),rhsMax =  -1.98906517078160E-03  1.59749086542238E-01
 cg2d: Sum(rhs),rhsMax =  -1.98918005622069E-03  1.59759340110348E-01
 cg2d: Sum(rhs),rhsMax =  -1.98929381575514E-03  1.59769580899469E-01
 cg2d: Sum(rhs),rhsMax =  -1.98940648138224E-03  1.59779808915500E-01
 cg2d: Sum(rhs),rhsMax =  -1.98951808401204E-03  1.59790024164352E-01
 cg2d: Sum(rhs),rhsMax =  -1.98962865603650E-03  1.59800226651952E-01
 cg2d: Sum(rhs),rhsMax =  -1.98973822806466E-03  1.59810416384255E-01
 cg2d: Sum(rhs),rhsMax =  -1.98984683153570E-03  1.59820593367224E-01
 cg2d: Sum(rhs),rhsMax =  -1.98995449797092E-03  1.59830757606845E-01
 cg2d: Sum(rhs),rhsMax =  -1.99006125863142E-03  1.59840909109123E-01
 cg2d: Sum(rhs),rhsMax =  -1.99016714442742E-03  1.59851047880076E-01
 cg2d: Sum(rhs),rhsMax =  -1.99027218640457E-03  1.59861173925745E-01
 cg2d: Sum(rhs),rhsMax =  -1.99037641547820E-03  1.59871287252186E-01
 cg2d: Sum(rhs),rhsMax =  -1.99047986282016E-03  1.59881387865472E-01
 cg2d: Sum(rhs),rhsMax =  -1.99058255909709E-03  1.59891475771699E-01
 cg2d: Sum(rhs),rhsMax =  -1.99068453461774E-03  1.59901550976975E-01
 cg2d: Sum(rhs),rhsMax =  -1.99078582059011E-03  1.59911613487430E-01
 cg2d: Sum(rhs),rhsMax =  -1.99088644712996E-03  1.59921663309209E-01
 cg2d: Sum(rhs),rhsMax =  -1.99098644474528E-03  1.59931700448474E-01
 cg2d: Sum(rhs),rhsMax =  -1.99108584371496E-03  1.59941724911412E-01
 cg2d: Sum(rhs),rhsMax =  -1.99118467417881E-03  1.59951736704217E-01
 cg2d: Sum(rhs),rhsMax =  -1.99128296611283E-03  1.59961735833108E-01
 cg2d: Sum(rhs),rhsMax =  -1.99138074942926E-03  1.59971722304323E-01
 cg2d: Sum(rhs),rhsMax =  -1.99147805363719E-03  1.59981696124109E-01
 cg2d: Sum(rhs),rhsMax =  -1.99157490899964E-03  1.59991657298740E-01
 cg2d: Sum(rhs),rhsMax =  -1.99167134402528E-03  1.60001605834504E-01
 cg2d: Sum(rhs),rhsMax =  -1.99176738885574E-03  1.60011541737705E-01
 cg2d: Sum(rhs),rhsMax =  -1.99186307242311E-03  1.60021465014664E-01
 cg2d: Sum(rhs),rhsMax =  -1.99195842332719E-03  1.60031375671726E-01
 cg2d: Sum(rhs),rhsMax =  -1.99205347109292E-03  1.60041273715246E-01
 cg2d: Sum(rhs),rhsMax =  -1.99214824424644E-03  1.60051159151601E-01
 cg2d: Sum(rhs),rhsMax =  -1.99224277080600E-03  1.60061031987185E-01
 cg2d: Sum(rhs),rhsMax =  -1.99233707983819E-03  1.60070892228406E-01
 cg2d: Sum(rhs),rhsMax =  -1.99243119926788E-03  1.60080739881692E-01
 cg2d: Sum(rhs),rhsMax =  -1.99252515697821E-03  1.60090574953492E-01
 cg2d: Sum(rhs),rhsMax =  -1.99261898069453E-03  1.60100397450266E-01
 cg2d: Sum(rhs),rhsMax =  -1.99271269867955E-03  1.60110207378494E-01
 cg2d: Sum(rhs),rhsMax =  -1.99280633752625E-03  1.60120004744675E-01
 cg2d: Sum(rhs),rhsMax =  -1.99289992481340E-03  1.60129789555325E-01
 cg2d: Sum(rhs),rhsMax =  -1.99299348820227E-03  1.60139561816972E-01
 cg2d: Sum(rhs),rhsMax =  -1.99308705394007E-03  1.60149321536169E-01
 cg2d: Sum(rhs),rhsMax =  -1.99318064872130E-03  1.60159068719482E-01
 cg2d: Sum(rhs),rhsMax =  -1.99327429907663E-03  1.60168803373495E-01
 cg2d: Sum(rhs),rhsMax =  -1.99336803134671E-03  1.60178525504808E-01
 cg2d: Sum(rhs),rhsMax =  -1.99346187166383E-03  1.60188235120040E-01
 cg2d: Sum(rhs),rhsMax =  -1.99355584567882E-03  1.60197932225826E-01
 cg2d: Sum(rhs),rhsMax =  -1.99364997912652E-03  1.60207616828821E-01
 cg2d: Sum(rhs),rhsMax =  -1.99374429747707E-03  1.60217288935694E-01
 cg2d: Sum(rhs),rhsMax =  -1.99383882573873E-03  1.60226948553130E-01
 cg2d: Sum(rhs),rhsMax =  -1.99393358902687E-03  1.60236595687832E-01
 cg2d: Sum(rhs),rhsMax =  -1.99402861238494E-03  1.60246230346525E-01
 cg2d: Sum(rhs),rhsMax =  -1.99412391975656E-03  1.60255852535945E-01
 cg2d: Sum(rhs),rhsMax =  -1.99421953544408E-03  1.60265462262847E-01
 cg2d: Sum(rhs),rhsMax =  -1.99431548390781E-03  1.60275059534001E-01
 cg2d: Sum(rhs),rhsMax =  -1.99441178869625E-03  1.60284644356199E-01
 cg2d: Sum(rhs),rhsMax =  -1.99450847370381E-03  1.60294216736244E-01
 cg2d: Sum(rhs),rhsMax =  -1.99460556202637E-03  1.60303776680962E-01
 cg2d: Sum(rhs),rhsMax =  -1.99470307669633E-03  1.60313324197188E-01
 cg2d: Sum(rhs),rhsMax =  -1.99480104093383E-03  1.60322859291784E-01
 cg2d: Sum(rhs),rhsMax =  -1.99489947725910E-03  1.60332381971619E-01
(PID.TID 0000.0001)      cg2d_init_res =   1.36201963903787E-03
(PID.TID 0000.0001)      cg2d_iters(min,last) =      -1      76
(PID.TID 0000.0001)      cg2d_last_res =   9.16616168821922E-08
(PID.TID 0000.0001) // =======================================================
(PID.TID 0000.0001) // Begin MONITOR dynamic field statistics
(PID.TID 0000.0001) // =======================================================
(PID.TID 0000.0001) %MON time_tsnumber                =                  6696
(PID.TID 0000.0001) %MON time_secondsf                =   8.0352000000000E+06
(PID.TID 0000.0001) %MON dynstat_eta_max              =   1.6747869492991E-01
(PID.TID 0000.0001) %MON dynstat_eta_min              =  -6.6192282012685E-02
(PID.TID 0000.0001) %MON dynstat_eta_mean             =   1.5985895576940E-06
(PID.TID 0000.0001) %MON dynstat_eta_sd               =   7.0139134553097E-02
(PID.TID 0000.0001) %MON dynstat_eta_del2             =   2.2733234801331E-05
(PID.TID 0000.0001) %MON dynstat_uvel_max             =   1.1225747423213E-01
(PID.TID 0000.0001) %MON dynstat_uvel_min             =  -6.0871075315434E-02
(PID.TID 0000.0001) %MON dynstat_uvel_mean            =   2.0253415546584E-08
(PID.TID 0000.0001) %MON dynstat_uvel_sd              =   3.0292054982173E-02
(PID.TID 0000.0001) %MON dynstat_uvel_del2            =   5.6270172858666E-05
(PID.TID 0000.0001) %MON dynstat_vvel_max             =   8.6255788019819E-02
(PID.TID 0000.0001) %MON dynstat_vvel_min             =  -7.2380879396169E-02
(PID.TID 0000.0001) %MON dynstat_vvel_mean            =   2.0585255316973E-07
(PID.TID 0000.0001) %MON dynstat_vvel_sd              =   2.6812874397600E-02
(PID.TID 0000.0001) %MON dynstat_vvel_del2            =   4.5217116353495E-05
(PID.TID 0000.0001) %MON dynstat_wvel_max             =   1.9757563614985E-08
(PID.TID 0000.0001) %MON dynstat_wvel_min             =  -1.3714318738785E-08
(PID.TID 0000.0001) %MON dynstat_wvel_mean            =  -2.0989029457673E-21
(PID.TID 0000.0001) %MON dynstat_wvel_sd              =   7.1725190198380E-09
(PID.TID 0000.0001) %MON dynstat_wvel_del2            =   3.6156654393695E-12
(PID.TID 0000.0001) %MON dynstat_theta_max            =   2.0000000000000E+01
(PID.TID 0000.0001) %MON dynstat_theta_min            =   2.0000000000000E+01
(PID.TID 0000.0001) %MON dynstat_theta_mean           =   2.0000000000000E+01
(PID.TID 0000.0001) %MON dynstat_theta_sd             =   3.8014036363165E-13
(PID.TID 0000.0001) %MON dynstat_theta_del2           =   0.0000000000000E+00
(PID.TID 0000.0001) %MON dynstat_salt_max             =   3.0000000000000E+01
(PID.TID 0000.0001) %MON dynstat_salt_min             =   3.0000000000000E+01
(PID.TID 0000.0001) %MON dynstat_salt_mean            =   2.9999999999999E+01
(PID.TID 0000.0001) %MON dynstat_salt_sd              =   5.5777604757167E-13
(PID.TID 0000.0001) %MON dynstat_salt_del2            =   0.0000000000000E+00
(PID.TID 0000.0001) %MON trAdv_CFL_u_max              =   6.7322311339865E-03
(PID.TID 0000.0001) %MON trAdv_CFL_v_max              =   5.1757606364052E-03
(PID.TID 0000.0001) %MON trAdv_CFL_w_max              =   5.1721055726406E-09
(PID.TID 0000.0001) %MON advcfl_uvel_max              =   6.7354484539280E-03
(PID.TID 0000.0001) %MON advcfl_vvel_max              =   5.1753472811891E-03
(PID.TID 0000.0001) %MON advcfl_wvel_max              =   9.4836305351928E-09
(PID.TID 0000.0001) %MON advcfl_W_hf_max              =   0.0000000000000E+00
(PID.TID 0000.0001) %MON pe_b_mean                    =   5.0436402205466E-06
(PID.TID 0000.0001) %MON ke_max                       =   6.2955282710555E-03
(PID.TID 0000.0001) %MON ke_mean                      =   8.0322257218664E-04
(PID.TID 0000.0001) %MON ke_vol                       =   6.8893493896486E+15
(PID.TID 0000.0001) %MON vort_r_min                   =  -1.1021035785820E-06
(PID.TID 0000.0001) %MON vort_r_max                   =   2.5035565023405E-06
(PID.TID 0000.0001) %MON vort_a_mean                  =   1.0600000000000E-04
(PID.TID 0000.0001) %MON vort_a_sd                    =   3.5455628202960E-06
(PID.TID 0000.0001) %MON vort_p_mean                  =   1.1652272308690E-04
(PID.TID 0000.0001) %MON vort_p_sd                    =   4.1775939801892E-05
(PID.TID 0000.0001) %MON surfExpan_theta_mean         =  -4.1989858503813E-20
(PID.TID 0000.0001) %MON surfExpan_salt_mean          =  -6.2987629926662E-20
(PID.TID 0000.0001) // =======================================================
(PID.TID 0000.0001) // End MONITOR dynamic field statistics
(PID.TID 0000.0001) // =======================================================
 cg2d: Sum(rhs),rhsMax =  -1.99499840787410E-03  1.60341892243584E-01
 cg2d: Sum(rhs),rhsMax =  -1.99509785500104E-03  1.60351390114585E-01
 cg2d: Sum(rhs),rhsMax =  -1.99519784055987E-03  1.60360875591549E-01
 cg2d: Sum(rhs),rhsMax =  -1.99529838639622E-03  1.60370348681412E-01
 cg2d: Sum(rhs),rhsMax =  -1.99539951384995E-03  1.60379809391135E-01
 cg2d: Sum(rhs),rhsMax =  -1.99550124399636E-03  1.60389257727688E-01
 cg2d: Sum(rhs),rhsMax =  -1.99560359759726E-03  1.60398693698064E-01
 cg2d: Sum(rhs),rhsMax =  -1.99570659564681E-03  1.60408117309267E-01
 cg2d: Sum(rhs),rhsMax =  -1.99581025829134E-03  1.60417528568325E-01
 cg2d: Sum(rhs),rhsMax =  -1.99591460615882E-03  1.60426927482272E-01
 cg2d: Sum(rhs),rhsMax =  -1.99601965819265E-03  1.60436314058169E-01
 cg2d: Sum(rhs),rhsMax =  -1.99612543510955E-03  1.60445688303087E-01
 cg2d: Sum(rhs),rhsMax =  -1.99623195569251E-03  1.60455050224119E-01
 cg2d: Sum(rhs),rhsMax =  -1.99633923912892E-03  1.60464399828368E-01
 cg2d: Sum(rhs),rhsMax =  -1.99644730452500E-03  1.60473737122958E-01
 cg2d: Sum(rhs),rhsMax =  -1.99655617062672E-03  1.60483062115027E-01
 cg2d: Sum(rhs),rhsMax =  -1.99666585551626E-03  1.60492374811730E-01
 cg2d: Sum(rhs),rhsMax =  -1.99677637729521E-03  1.60501675220241E-01
 cg2d: Sum(rhs),rhsMax =  -1.99688775398460E-03  1.60510963347747E-01
 cg2d: Sum(rhs),rhsMax =  -1.99700000327485E-03  1.60520239201450E-01
 cg2d: Sum(rhs),rhsMax =  -1.99711314212103E-03  1.60529502788574E-01
 cg2d: Sum(rhs),rhsMax =  -1.99722718799515E-03  1.60538754116356E-01
 cg2d: Sum(rhs),rhsMax =  -1.99734215721952E-03  1.60547993192050E-01
 cg2d: Sum(rhs),rhsMax =  -1.99745806721250E-03  1.60557220022921E-01
 cg2d: Sum(rhs),rhsMax =  -1.99757493379693E-03  1.60566434616260E-01
 cg2d: Sum(rhs),rhsMax =  -1.99769277310608E-03  1.60575636979366E-01
 cg2d: Sum(rhs),rhsMax =  -1.99781160071011E-03  1.60584827119557E-01
 cg2d: Sum(rhs),rhsMax =  -1.99793143262874E-03  1.60594005044168E-01
 cg2d: Sum(rhs),rhsMax =  -1.99805228401481E-03  1.60603170760550E-01
 cg2d: Sum(rhs),rhsMax =  -1.99817416973742E-03  1.60612324276067E-01
 cg2d: Sum(rhs),rhsMax =  -1.99829710444931E-03  1.60621465598104E-01
 cg2d: Sum(rhs),rhsMax =  -1.99842110359192E-03  1.60630594734059E-01
 cg2d: Sum(rhs),rhsMax =  -1.99854618050193E-03  1.60639711691344E-01
 cg2d: Sum(rhs),rhsMax =  -1.99867234952480E-03  1.60648816477391E-01
 cg2d: Sum(rhs),rhsMax =  -1.99879962460450E-03  1.60657909099649E-01
 cg2d: Sum(rhs),rhsMax =  -1.99892801903571E-03  1.60666989565575E-01
 cg2d: Sum(rhs),rhsMax =  -1.99905754651155E-03  1.60676057882649E-01
 cg2d: Sum(rhs),rhsMax =  -1.99918821936453E-03  1.60685114058368E-01
 cg2d: Sum(rhs),rhsMax =  -1.99932005129088E-03  1.60694158100239E-01
 cg2d: Sum(rhs),rhsMax =  -1.99945305441080E-03  1.60703190015789E-01
 cg2d: Sum(rhs),rhsMax =  -1.99958724073501E-03  1.60712209812558E-01
 cg2d: Sum(rhs),rhsMax =  -1.99972262270330E-03  1.60721217498103E-01
 cg2d: Sum(rhs),rhsMax =  -1.99985921195157E-03  1.60730213079998E-01
 cg2d: Sum(rhs),rhsMax =  -1.99999702006321E-03  1.60739196565832E-01
 cg2d: Sum(rhs),rhsMax =  -2.00013605865452E-03  1.60748167963211E-01
 cg2d: Sum(rhs),rhsMax =  -2.00027633846379E-03  1.60757127279754E-01
 cg2d: Sum(rhs),rhsMax =  -2.00041787050915E-03  1.60766074523092E-01
 cg2d: Sum(rhs),rhsMax =  -2.00056066585898E-03  1.60775009700881E-01
 cg2d: Sum(rhs),rhsMax =  -2.00070473418358E-03  1.60783932820788E-01
 cg2d: Sum(rhs),rhsMax =  -2.00085008599322E-03  1.60792843890492E-01
 cg2d: Sum(rhs),rhsMax =  -2.00099673084663E-03  1.60801742917696E-01
 cg2d: Sum(rhs),rhsMax =  -2.00114467912375E-03  1.60810629910110E-01
 cg2d: Sum(rhs),rhsMax =  -2.00129393988231E-03  1.60819504875465E-01
 cg2d: Sum(rhs),rhsMax =  -2.00144452224332E-03  1.60828367821501E-01
 cg2d: Sum(rhs),rhsMax =  -2.00159643565698E-03  1.60837218755983E-01
 cg2d: Sum(rhs),rhsMax =  -2.00174968857708E-03  1.60846057686683E-01
 cg2d: Sum(rhs),rhsMax =  -2.00190428957822E-03  1.60854884621394E-01
 cg2d: Sum(rhs),rhsMax =  -2.00206024727160E-03  1.60863699567921E-01
 cg2d: Sum(rhs),rhsMax =  -2.00221756923070E-03  1.60872502534083E-01
 cg2d: Sum(rhs),rhsMax =  -2.00237626361513E-03  1.60881293527721E-01
 cg2d: Sum(rhs),rhsMax =  -2.00253633867140E-03  1.60890072556683E-01
 cg2d: Sum(rhs),rhsMax =  -2.00269780100169E-03  1.60898839628836E-01
 cg2d: Sum(rhs),rhsMax =  -2.00286065850650E-03  1.60907594752067E-01
 cg2d: Sum(rhs),rhsMax =  -2.00302491840280E-03  1.60916337934268E-01
 cg2d: Sum(rhs),rhsMax =  -2.00319058689891E-03  1.60925069183355E-01
 cg2d: Sum(rhs),rhsMax =  -2.00335767063737E-03  1.60933788507253E-01
 cg2d: Sum(rhs),rhsMax =  -2.00352617663907E-03  1.60942495913908E-01
 cg2d: Sum(rhs),rhsMax =  -2.00369611088217E-03  1.60951191411277E-01
 cg2d: Sum(rhs),rhsMax =  -2.00386747896729E-03  1.60959875007333E-01
 cg2d: Sum(rhs),rhsMax =  -2.00404028739792E-03  1.60968546710063E-01
 cg2d: Sum(rhs),rhsMax =  -2.00421454138531E-03  1.60977206527471E-01
 cg2d: Sum(rhs),rhsMax =  -2.00439024640606E-03  1.60985854467573E-01
(PID.TID 0000.0001)      cg2d_init_res =   1.34236707331408E-03
(PID.TID 0000.0001)      cg2d_iters(min,last) =      -1      76
(PID.TID 0000.0001)      cg2d_last_res =   9.29010345505653E-08
(PID.TID 0000.0001) // =======================================================
(PID.TID 0000.0001) // Begin MONITOR dynamic field statistics
(PID.TID 0000.0001) // =======================================================
(PID.TID 0000.0001) %MON time_tsnumber                =                  6768
(PID.TID 0000.0001) %MON time_secondsf                =   8.1216000000000E+06
(PID.TID 0000.0001) %MON dynstat_eta_max              =   1.6895826606927E-01
(PID.TID 0000.0001) %MON dynstat_eta_min              =  -6.6497821688503E-02
(PID.TID 0000.0001) %MON dynstat_eta_mean             =   1.6127947193029E-06
(PID.TID 0000.0001) %MON dynstat_eta_sd               =   7.0677280025358E-02
(PID.TID 0000.0001) %MON dynstat_eta_del2             =   2.2861058108260E-05
(PID.TID 0000.0001) %MON dynstat_uvel_max             =   1.1290931753600E-01
(PID.TID 0000.0001) %MON dynstat_uvel_min             =  -6.1598826695985E-02
(PID.TID 0000.0001) %MON dynstat_uvel_mean            =   2.5999268073067E-08
(PID.TID 0000.0001) %MON dynstat_uvel_sd              =   3.0508706385278E-02
(PID.TID 0000.0001) %MON dynstat_uvel_del2            =   5.6726396006431E-05
(PID.TID 0000.0001) %MON dynstat_vvel_max             =   8.5721485915210E-02
(PID.TID 0000.0001) %MON dynstat_vvel_min             =  -7.2810048072843E-02
(PID.TID 0000.0001) %MON dynstat_vvel_mean            =   2.0222440263192E-07
(PID.TID 0000.0001) %MON dynstat_vvel_sd              =   2.6975744433781E-02
(PID.TID 0000.0001) %MON dynstat_vvel_del2            =   4.4919737838184E-05
(PID.TID 0000.0001) %MON dynstat_wvel_max             =   1.9659913203213E-08
(PID.TID 0000.0001) %MON dynstat_wvel_min             =  -1.3715933066560E-08
(PID.TID 0000.0001) %MON dynstat_wvel_mean            =   9.8614454044663E-21
(PID.TID 0000.0001) %MON dynstat_wvel_sd              =   7.1456546954051E-09
(PID.TID 0000.0001) %MON dynstat_wvel_del2            =   3.5848503557310E-12
(PID.TID 0000.0001) %MON dynstat_theta_max            =   2.0000000000000E+01
(PID.TID 0000.0001) %MON dynstat_theta_min            =   2.0000000000000E+01
(PID.TID 0000.0001) %MON dynstat_theta_mean           =   2.0000000000000E+01
(PID.TID 0000.0001) %MON dynstat_theta_sd             =   3.8014036363165E-13
(PID.TID 0000.0001) %MON dynstat_theta_del2           =   0.0000000000000E+00
(PID.TID 0000.0001) %MON dynstat_salt_max             =   3.0000000000000E+01
(PID.TID 0000.0001) %MON dynstat_salt_min             =   3.0000000000000E+01
(PID.TID 0000.0001) %MON dynstat_salt_mean            =   2.9999999999999E+01
(PID.TID 0000.0001) %MON dynstat_salt_sd              =   5.5777604757167E-13
(PID.TID 0000.0001) %MON dynstat_salt_del2            =   0.0000000000000E+00
(PID.TID 0000.0001) %MON trAdv_CFL_u_max              =   6.7713638666663E-03
(PID.TID 0000.0001) %MON trAdv_CFL_v_max              =   5.1437641628869E-03
(PID.TID 0000.0001) %MON trAdv_CFL_w_max              =   5.1506934937004E-09
(PID.TID 0000.0001) %MON advcfl_uvel_max              =   6.7745590521601E-03
(PID.TID 0000.0001) %MON advcfl_vvel_max              =   5.1432891549126E-03
(PID.TID 0000.0001) %MON advcfl_wvel_max              =   9.4367583375424E-09
(PID.TID 0000.0001) %MON advcfl_W_hf_max              =   0.0000000000000E+00
(PID.TID 0000.0001) %MON pe_b_mean                    =   5.1213322143148E-06
(PID.TID 0000.0001) %MON ke_max                       =   6.3718661825950E-03
(PID.TID 0000.0001) %MON ke_mean                      =   8.1398747456052E-04
(PID.TID 0000.0001) %MON ke_vol                       =   6.8893493896486E+15
(PID.TID 0000.0001) %MON vort_r_min                   =  -1.1068965357219E-06
(PID.TID 0000.0001) %MON vort_r_max                   =   2.5194838057653E-06
(PID.TID 0000.0001) %MON vort_a_mean                  =   1.0600000000000E-04
(PID.TID 0000.0001) %MON vort_a_sd                    =   3.5457823209449E-06
(PID.TID 0000.0001) %MON vort_p_mean                  =   1.1652272308690E-04
(PID.TID 0000.0001) %MON vort_p_sd                    =   4.1776237962016E-05
(PID.TID 0000.0001) %MON surfExpan_theta_mean         =   1.9725139793141E-19
(PID.TID 0000.0001) %MON surfExpan_salt_mean          =   2.9586762176040E-19
(PID.TID 0000.0001) // =======================================================
(PID.TID 0000.0001) // End MONITOR dynamic field statistics
(PID.TID 0000.0001) // =======================================================
 cg2d: Sum(rhs),rhsMax =  -2.00456740779119E-03  1.60994490538406E-01
 cg2d: Sum(rhs),rhsMax =  -2.00474603041074E-03  1.61003114748015E-01
 cg2d: Sum(rhs),rhsMax =  -2.00492611933939E-03  1.61011727104465E-01
 cg2d: Sum(rhs),rhsMax =  -2.00510767926951E-03  1.61020327615832E-01
 cg2d: Sum(rhs),rhsMax =  -2.00529071430005E-03  1.61028916290208E-01
 cg2d: Sum(rhs),rhsMax =  -2.00547522943043E-03  1.61037493135702E-01
 cg2d: Sum(rhs),rhsMax =  -2.00566122812737E-03  1.61046058160437E-01
 cg2d: Sum(rhs),rhsMax =  -2.00584871446876E-03  1.61054611372547E-01
 cg2d: Sum(rhs),rhsMax =  -2.00603769213761E-03  1.61063152780186E-01
 cg2d: Sum(rhs),rhsMax =  -2.00622816503001E-03  1.61071682391517E-01
 cg2d: Sum(rhs),rhsMax =  -2.00642013633359E-03  1.61080200214725E-01
 cg2d: Sum(rhs),rhsMax =  -2.00661360956923E-03  1.61088706258006E-01
 cg2d: Sum(rhs),rhsMax =  -2.00680858736132E-03  1.61097200529567E-01
 cg2d: Sum(rhs),rhsMax =  -2.00700507297881E-03  1.61105683037634E-01
 cg2d: Sum(rhs),rhsMax =  -2.00720306904211E-03  1.61114153790449E-01
 cg2d: Sum(rhs),rhsMax =  -2.00740257802155E-03  1.61122612796263E-01
 cg2d: Sum(rhs),rhsMax =  -2.00760360201922E-03  1.61131060063346E-01
 cg2d: Sum(rhs),rhsMax =  -2.00780614360008E-03  1.61139495599980E-01
 cg2d: Sum(rhs),rhsMax =  -2.00801020502783E-03  1.61147919414465E-01
 cg2d: Sum(rhs),rhsMax =  -2.00821578809984E-03  1.61156331515111E-01
 cg2d: Sum(rhs),rhsMax =  -2.00842289437958E-03  1.61164731910244E-01
 cg2d: Sum(rhs),rhsMax =  -2.00863152553240E-03  1.61173120608207E-01
 cg2d: Sum(rhs),rhsMax =  -2.00884168315047E-03  1.61181497617352E-01
 cg2d: Sum(rhs),rhsMax =  -2.00905336844582E-03  1.61189862946053E-01
 cg2d: Sum(rhs),rhsMax =  -2.00926658277494E-03  1.61198216602690E-01
 cg2d: Sum(rhs),rhsMax =  -2.00948132678280E-03  1.61206558595662E-01
 cg2d: Sum(rhs),rhsMax =  -2.00969760182311E-03  1.61214888933381E-01
 cg2d: Sum(rhs),rhsMax =  -2.00991540796937E-03  1.61223207624274E-01
 cg2d: Sum(rhs),rhsMax =  -2.01013474672453E-03  1.61231514676782E-01
 cg2d: Sum(rhs),rhsMax =  -2.01035561801006E-03  1.61239810099360E-01
 cg2d: Sum(rhs),rhsMax =  -2.01057802212313E-03  1.61248093900478E-01
 cg2d: Sum(rhs),rhsMax =  -2.01080195935541E-03  1.61256366088617E-01
 cg2d: Sum(rhs),rhsMax =  -2.01102742984494E-03  1.61264626672274E-01
 cg2d: Sum(rhs),rhsMax =  -2.01125443327757E-03  1.61272875659964E-01
 cg2d: Sum(rhs),rhsMax =  -2.01148296962941E-03  1.61281113060207E-01
 cg2d: Sum(rhs),rhsMax =  -2.01171303851893E-03  1.61289338881547E-01
 cg2d: Sum(rhs),rhsMax =  -2.01194463954421E-03  1.61297553132534E-01
 cg2d: Sum(rhs),rhsMax =  -2.01217777232888E-03  1.61305755821737E-01
 cg2d: Sum(rhs),rhsMax =  -2.01241243564754E-03  1.61313946957739E-01
 cg2d: Sum(rhs),rhsMax =  -2.01264862942444E-03  1.61322126549131E-01
 cg2d: Sum(rhs),rhsMax =  -2.01288635198157E-03  1.61330294604524E-01
 cg2d: Sum(rhs),rhsMax =  -2.01312560278837E-03  1.61338451132541E-01
 cg2d: Sum(rhs),rhsMax =  -2.01336638063117E-03  1.61346596141818E-01
 cg2d: Sum(rhs),rhsMax =  -2.01360868404569E-03  1.61354729641006E-01
 cg2d: Sum(rhs),rhsMax =  -2.01385251203392E-03  1.61362851638768E-01
 cg2d: Sum(rhs),rhsMax =  -2.01409786213000E-03  1.61370962143785E-01
 cg2d: Sum(rhs),rhsMax =  -2.01434473387766E-03  1.61379061164745E-01
 cg2d: Sum(rhs),rhsMax =  -2.01459312496651E-03  1.61387148710354E-01
 cg2d: Sum(rhs),rhsMax =  -2.01484303401282E-03  1.61395224789329E-01
 cg2d: Sum(rhs),rhsMax =  -2.01509445906426E-03  1.61403289410408E-01
 cg2d: Sum(rhs),rhsMax =  -2.01534739779088E-03  1.61411342582332E-01
 cg2d: Sum(rhs),rhsMax =  -2.01560184809154E-03  1.61419384313862E-01
 cg2d: Sum(rhs),rhsMax =  -2.01585780811753E-03  1.61427414613772E-01
 cg2d: Sum(rhs),rhsMax =  -2.01611527545547E-03  1.61435433490850E-01
 cg2d: Sum(rhs),rhsMax =  -2.01637424749786E-03  1.61443440953894E-01
 cg2d: Sum(rhs),rhsMax =  -2.01663472195926E-03  1.61451437011715E-01
 cg2d: Sum(rhs),rhsMax =  -2.01689669673289E-03  1.61459421673146E-01
 cg2d: Sum(rhs),rhsMax =  -2.01716016825829E-03  1.61467394947022E-01
 cg2d: Sum(rhs),rhsMax =  -2.01742513465588E-03  1.61475356842201E-01
 cg2d: Sum(rhs),rhsMax =  -2.01769159269900E-03  1.61483307367549E-01
 cg2d: Sum(rhs),rhsMax =  -2.01795953958710E-03  1.61491246531944E-01
 cg2d: Sum(rhs),rhsMax =  -2.01822897210379E-03  1.61499174344281E-01
 cg2d: Sum(rhs),rhsMax =  -2.01849988755973E-03  1.61507090813466E-01
 cg2d: Sum(rhs),rhsMax =  -2.01877228273787E-03  1.61514995948423E-01
 cg2d: Sum(rhs),rhsMax =  -2.01904615413459E-03  1.61522889758081E-01
 cg2d: Sum(rhs),rhsMax =  -2.01932149873971E-03  1.61530772251390E-01
 cg2d: Sum(rhs),rhsMax =  -2.01959831321451E-03  1.61538643437308E-01
 cg2d: Sum(rhs),rhsMax =  -2.01987659405311E-03  1.61546503324805E-01
 cg2d: Sum(rhs),rhsMax =  -2.02015633762990E-03  1.61554351922872E-01
 cg2d: Sum(rhs),rhsMax =  -2.02043754061970E-03  1.61562189240504E-01
 cg2d: Sum(rhs),rhsMax =  -2.02072019911837E-03  1.61570015286715E-01
 cg2d: Sum(rhs),rhsMax =  -2.02100430981560E-03  1.61577830070529E-01
(PID.TID 0000.0001)      cg2d_init_res =   1.32288530528024E-03
(PID.TID 0000.0001)      cg2d_iters(min,last) =      -1      76
(PID.TID 0000.0001)      cg2d_last_res =   9.41202892975580E-08
(PID.TID 0000.0001) // =======================================================
(PID.TID 0000.0001) // Begin MONITOR dynamic field statistics
(PID.TID 0000.0001) // =======================================================
(PID.TID 0000.0001) %MON time_tsnumber                =                  6840
(PID.TID 0000.0001) %MON time_secondsf                =   8.2080000000000E+06
(PID.TID 0000.0001) %MON dynstat_eta_max              =   1.7043053596968E-01
(PID.TID 0000.0001) %MON dynstat_eta_min              =  -6.6809244253566E-02
(PID.TID 0000.0001) %MON dynstat_eta_mean             =   1.6322202381178E-06
(PID.TID 0000.0001) %MON dynstat_eta_sd               =   7.1213273350144E-02
(PID.TID 0000.0001) %MON dynstat_eta_del2             =   2.2986138348238E-05
(PID.TID 0000.0001) %MON dynstat_uvel_max             =   1.1351698727795E-01
(PID.TID 0000.0001) %MON dynstat_uvel_min             =  -6.2343138541056E-02
(PID.TID 0000.0001) %MON dynstat_uvel_mean            =   3.1898562808766E-08
(PID.TID 0000.0001) %MON dynstat_uvel_sd              =   3.0724363061459E-02
(PID.TID 0000.0001) %MON dynstat_uvel_del2            =   5.7168149591037E-05
(PID.TID 0000.0001) %MON dynstat_vvel_max             =   8.5118026904063E-02
(PID.TID 0000.0001) %MON dynstat_vvel_min             =  -7.3241173585927E-02
(PID.TID 0000.0001) %MON dynstat_vvel_mean            =   1.9814773494111E-07
(PID.TID 0000.0001) %MON dynstat_vvel_sd              =   2.7138431264274E-02
(PID.TID 0000.0001) %MON dynstat_vvel_del2            =   4.4621353648873E-05
(PID.TID 0000.0001) %MON dynstat_wvel_max             =   1.9579108966864E-08
(PID.TID 0000.0001) %MON dynstat_wvel_min             =  -1.3570300287101E-08
(PID.TID 0000.0001) %MON dynstat_wvel_mean            =   9.1141499878075E-22
(PID.TID 0000.0001) %MON dynstat_wvel_sd              =   7.1200832491655E-09
(PID.TID 0000.0001) %MON dynstat_wvel_del2            =   3.5543005523429E-12
(PID.TID 0000.0001) %MON dynstat_theta_max            =   2.0000000000000E+01
(PID.TID 0000.0001) %MON dynstat_theta_min            =   2.0000000000000E+01
(PID.TID 0000.0001) %MON dynstat_theta_mean           =   2.0000000000000E+01
(PID.TID 0000.0001) %MON dynstat_theta_sd             =   3.8014036363165E-13
(PID.TID 0000.0001) %MON dynstat_theta_del2           =   0.0000000000000E+00
(PID.TID 0000.0001) %MON dynstat_salt_max             =   3.0000000000000E+01
(PID.TID 0000.0001) %MON dynstat_salt_min             =   3.0000000000000E+01
(PID.TID 0000.0001) %MON dynstat_salt_mean            =   2.9999999999999E+01
(PID.TID 0000.0001) %MON dynstat_salt_sd              =   5.5777604757167E-13
(PID.TID 0000.0001) %MON dynstat_salt_del2            =   0.0000000000000E+00
(PID.TID 0000.0001) %MON trAdv_CFL_u_max              =   6.8080330715200E-03
(PID.TID 0000.0001) %MON trAdv_CFL_v_max              =   5.1076102339538E-03
(PID.TID 0000.0001) %MON trAdv_CFL_w_max              =   5.1295780490503E-09
(PID.TID 0000.0001) %MON advcfl_uvel_max              =   6.8110192366768E-03
(PID.TID 0000.0001) %MON advcfl_vvel_max              =   5.1070816142438E-03
(PID.TID 0000.0001) %MON advcfl_wvel_max              =   9.3979723040946E-09
(PID.TID 0000.0001) %MON advcfl_W_hf_max              =   0.0000000000000E+00
(PID.TID 0000.0001) %MON pe_b_mean                    =   5.1993037624674E-06
(PID.TID 0000.0001) %MON ke_max                       =   6.4475992414907E-03
(PID.TID 0000.0001) %MON ke_mean                      =   8.2478960916119E-04
(PID.TID 0000.0001) %MON ke_vol                       =   6.8893493896486E+15
(PID.TID 0000.0001) %MON vort_r_min                   =  -1.1113571038721E-06
(PID.TID 0000.0001) %MON vort_r_max                   =   2.5348425269051E-06
(PID.TID 0000.0001) %MON vort_a_mean                  =   1.0600000000000E-04
(PID.TID 0000.0001) %MON vort_a_sd                    =   3.5459965745957E-06
(PID.TID 0000.0001) %MON vort_p_mean                  =   1.1652272308690E-04
(PID.TID 0000.0001) %MON vort_p_sd                    =   4.1776535591115E-05
(PID.TID 0000.0001) %MON surfExpan_theta_mean         =   1.8198104751516E-20
(PID.TID 0000.0001) %MON surfExpan_salt_mean          =   2.7290841191845E-20
(PID.TID 0000.0001) // =======================================================
(PID.TID 0000.0001) // End MONITOR dynamic field statistics
(PID.TID 0000.0001) // =======================================================
 cg2d: Sum(rhs),rhsMax =  -2.02128986848689E-03  1.61585633600986E-01
 cg2d: Sum(rhs),rhsMax =  -2.02157687146151E-03  1.61593425887133E-01
 cg2d: Sum(rhs),rhsMax =  -2.02186531467487E-03  1.61601206938037E-01
 cg2d: Sum(rhs),rhsMax =  -2.02215519474017E-03  1.61608976762773E-01
 cg2d: Sum(rhs),rhsMax =  -2.02244650713404E-03  1.61616735370432E-01
 cg2d: Sum(rhs),rhsMax =  -2.02273924773133E-03  1.61624482770114E-01
 cg2d: Sum(rhs),rhsMax =  -2.02303341260100E-03  1.61632218970936E-01
 cg2d: Sum(rhs),rhsMax =  -2.02332899750975E-03  1.61639943982027E-01
 cg2d: Sum(rhs),rhsMax =  -2.02362599824247E-03  1.61647657812525E-01
 cg2d: Sum(rhs),rhsMax =  -2.02392441043335E-03  1.61655360471586E-01
 cg2d: Sum(rhs),rhsMax =  -2.02422422973859E-03  1.61663051968372E-01
 cg2d: Sum(rhs),rhsMax =  -2.02452545160473E-03  1.61670732312065E-01
 cg2d: Sum(rhs),rhsMax =  -2.02482807196536E-03  1.61678401511856E-01
 cg2d: Sum(rhs),rhsMax =  -2.02513208596529E-03  1.61686059576950E-01
 cg2d: Sum(rhs),rhsMax =  -2.02543748899458E-03  1.61693706516559E-01
 cg2d: Sum(rhs),rhsMax =  -2.02574427691844E-03  1.61701342339918E-01
 cg2d: Sum(rhs),rhsMax =  -2.02605244458867E-03  1.61708967056266E-01
 cg2d: Sum(rhs),rhsMax =  -2.02636198755035E-03  1.61716580674855E-01
 cg2d: Sum(rhs),rhsMax =  -2.02667290125663E-03  1.61724183204954E-01
 cg2d: Sum(rhs),rhsMax =  -2.02698518040192E-03  1.61731774655841E-01
 cg2d: Sum(rhs),rhsMax =  -2.02729882065256E-03  1.61739355036808E-01
 cg2d: Sum(rhs),rhsMax =  -2.02761381708869E-03  1.61746924357159E-01
 cg2d: Sum(rhs),rhsMax =  -2.02793016460305E-03  1.61754482626210E-01
 cg2d: Sum(rhs),rhsMax =  -2.02824785832699E-03  1.61762029853289E-01
 cg2d: Sum(rhs),rhsMax =  -2.02856689333642E-03  1.61769566047736E-01
 cg2d: Sum(rhs),rhsMax =  -2.02888726463636E-03  1.61777091218904E-01
 cg2d: Sum(rhs),rhsMax =  -2.02920896741540E-03  1.61784605376160E-01
 cg2d: Sum(rhs),rhsMax =  -2.02953199582232E-03  1.61792108528879E-01
 cg2d: Sum(rhs),rhsMax =  -2.02985634551178E-03  1.61799600686452E-01
 cg2d: Sum(rhs),rhsMax =  -2.03018201139944E-03  1.61807081858281E-01
 cg2d: Sum(rhs),rhsMax =  -2.03050898781027E-03  1.61814552053778E-01
 cg2d: Sum(rhs),rhsMax =  -2.03083726974024E-03  1.61822011282371E-01
 cg2d: Sum(rhs),rhsMax =  -2.03116685196240E-03  1.61829459553497E-01
 cg2d: Sum(rhs),rhsMax =  -2.03149772937088E-03  1.61836896876606E-01
 cg2d: Sum(rhs),rhsMax =  -2.03182989652955E-03  1.61844323261160E-01
 cg2d: Sum(rhs),rhsMax =  -2.03216334787674E-03  1.61851738716633E-01
 cg2d: Sum(rhs),rhsMax =  -2.03249807846090E-03  1.61859143252510E-01
 cg2d: Sum(rhs),rhsMax =  -2.03283408287915E-03  1.61866536878291E-01
 cg2d: Sum(rhs),rhsMax =  -2.03317135540885E-03  1.61873919603486E-01
 cg2d: Sum(rhs),rhsMax =  -2.03350989069150E-03  1.61881291437612E-01
 cg2d: Sum(rhs),rhsMax =  -2.03384968390129E-03  1.61888652390206E-01
 cg2d: Sum(rhs),rhsMax =  -2.03419072882849E-03  1.61896002470813E-01
 cg2d: Sum(rhs),rhsMax =  -2.03453302026389E-03  1.61903341688990E-01
 cg2d: Sum(rhs),rhsMax =  -2.03487655277989E-03  1.61910670054304E-01
 cg2d: Sum(rhs),rhsMax =  -2.03522132072967E-03  1.61917987576339E-01
 cg2d: Sum(rhs),rhsMax =  -2.03556731892413E-03  1.61925294264682E-01
 cg2d: Sum(rhs),rhsMax =  -2.03591454123787E-03  1.61932590128940E-01
 cg2d: Sum(rhs),rhsMax =  -2.03626298232140E-03  1.61939875178728E-01
 cg2d: Sum(rhs),rhsMax =  -2.03661263690644E-03  1.61947149423675E-01
 cg2d: Sum(rhs),rhsMax =  -2.03696349898130E-03  1.61954412873413E-01
 cg2d: Sum(rhs),rhsMax =  -2.03731556274590E-03  1.61961665537597E-01
 cg2d: Sum(rhs),rhsMax =  -2.03766882332037E-03  1.61968907425890E-01
 cg2d: Sum(rhs),rhsMax =  -2.03802327417909E-03  1.61976138547963E-01
 cg2d: Sum(rhs),rhsMax =  -2.03837891007813E-03  1.61983358913498E-01
 cg2d: Sum(rhs),rhsMax =  -2.03873572564382E-03  1.61990568532194E-01
 cg2d: Sum(rhs),rhsMax =  -2.03909371430908E-03  1.61997767413759E-01
 cg2d: Sum(rhs),rhsMax =  -2.03945287134052E-03  1.62004955567910E-01
 cg2d: Sum(rhs),rhsMax =  -2.03981319037212E-03  1.62012133004376E-01
 cg2d: Sum(rhs),rhsMax =  -2.04017466566927E-03  1.62019299732902E-01
 cg2d: Sum(rhs),rhsMax =  -2.04053729198874E-03  1.62026455763236E-01
 cg2d: Sum(rhs),rhsMax =  -2.04090106308236E-03  1.62033601105146E-01
 cg2d: Sum(rhs),rhsMax =  -2.04126597332818E-03  1.62040735768403E-01
 cg2d: Sum(rhs),rhsMax =  -2.04163201709923E-03  1.62047859762796E-01
 cg2d: Sum(rhs),rhsMax =  -2.04199918859184E-03  1.62054973098124E-01
 cg2d: Sum(rhs),rhsMax =  -2.04236748158949E-03  1.62062075784190E-01
 cg2d: Sum(rhs),rhsMax =  -2.04273689093555E-03  1.62069167830818E-01
 cg2d: Sum(rhs),rhsMax =  -2.04310741055081E-03  1.62076249247837E-01
 cg2d: Sum(rhs),rhsMax =  -2.04347903411950E-03  1.62083320045090E-01
 cg2d: Sum(rhs),rhsMax =  -2.04385175698325E-03  1.62090380232429E-01
 cg2d: Sum(rhs),rhsMax =  -2.04422557225627E-03  1.62097429819719E-01
 cg2d: Sum(rhs),rhsMax =  -2.04460047450307E-03  1.62104468816834E-01
 cg2d: Sum(rhs),rhsMax =  -2.04497645786059E-03  1.62111497233656E-01
(PID.TID 0000.0001)      cg2d_init_res =   1.30355861286905E-03
(PID.TID 0000.0001)      cg2d_iters(min,last) =      -1      76
(PID.TID 0000.0001)      cg2d_last_res =   9.47983340168920E-08
(PID.TID 0000.0001) // =======================================================
(PID.TID 0000.0001) // Begin MONITOR dynamic field statistics
(PID.TID 0000.0001) // =======================================================
(PID.TID 0000.0001) %MON time_tsnumber                =                  6912
(PID.TID 0000.0001) %MON time_secondsf                =   8.2944000000000E+06
(PID.TID 0000.0001) %MON dynstat_eta_max              =   1.7189610517610E-01
(PID.TID 0000.0001) %MON dynstat_eta_min              =  -6.7127620241483E-02
(PID.TID 0000.0001) %MON dynstat_eta_mean             =   1.6570988382221E-06
(PID.TID 0000.0001) %MON dynstat_eta_sd               =   7.1747296280757E-02
(PID.TID 0000.0001) %MON dynstat_eta_del2             =   2.3108336020431E-05
(PID.TID 0000.0001) %MON dynstat_uvel_max             =   1.1426813638569E-01
(PID.TID 0000.0001) %MON dynstat_uvel_min             =  -6.3100369503990E-02
(PID.TID 0000.0001) %MON dynstat_uvel_mean            =   3.7820004384652E-08
(PID.TID 0000.0001) %MON dynstat_uvel_sd              =   3.0938981606864E-02
(PID.TID 0000.0001) %MON dynstat_uvel_del2            =   5.7594976332032E-05
(PID.TID 0000.0001) %MON dynstat_vvel_max             =   8.4455428221216E-02
(PID.TID 0000.0001) %MON dynstat_vvel_min             =  -7.3676085767735E-02
(PID.TID 0000.0001) %MON dynstat_vvel_mean            =   1.9361198302512E-07
(PID.TID 0000.0001) %MON dynstat_vvel_sd              =   2.7301251089389E-02
(PID.TID 0000.0001) %MON dynstat_vvel_del2            =   4.4323656290624E-05
(PID.TID 0000.0001) %MON dynstat_wvel_max             =   1.9484638025460E-08
(PID.TID 0000.0001) %MON dynstat_wvel_min             =  -1.3514231534209E-08
(PID.TID 0000.0001) %MON dynstat_wvel_mean            =  -7.0023323435938E-22
(PID.TID 0000.0001) %MON dynstat_wvel_sd              =   7.0960009809110E-09
(PID.TID 0000.0001) %MON dynstat_wvel_del2            =   3.5242163925237E-12
(PID.TID 0000.0001) %MON dynstat_theta_max            =   2.0000000000000E+01
(PID.TID 0000.0001) %MON dynstat_theta_min            =   2.0000000000000E+01
(PID.TID 0000.0001) %MON dynstat_theta_mean           =   2.0000000000000E+01
(PID.TID 0000.0001) %MON dynstat_theta_sd             =   3.8014036363165E-13
(PID.TID 0000.0001) %MON dynstat_theta_del2           =   0.0000000000000E+00
(PID.TID 0000.0001) %MON dynstat_salt_max             =   3.0000000000000E+01
(PID.TID 0000.0001) %MON dynstat_salt_min             =   3.0000000000000E+01
(PID.TID 0000.0001) %MON dynstat_salt_mean            =   2.9999999999999E+01
(PID.TID 0000.0001) %MON dynstat_salt_sd              =   5.5777604757167E-13
(PID.TID 0000.0001) %MON dynstat_salt_del2            =   0.0000000000000E+00
(PID.TID 0000.0001) %MON trAdv_CFL_u_max              =   6.8535056862899E-03
(PID.TID 0000.0001) %MON trAdv_CFL_v_max              =   5.0678993022481E-03
(PID.TID 0000.0001) %MON trAdv_CFL_w_max              =   5.1048749727457E-09
(PID.TID 0000.0001) %MON advcfl_uvel_max              =   6.8560881831414E-03
(PID.TID 0000.0001) %MON advcfl_vvel_max              =   5.0673256932730E-03
(PID.TID 0000.0001) %MON advcfl_wvel_max              =   9.3526262522209E-09
(PID.TID 0000.0001) %MON advcfl_W_hf_max              =   0.0000000000000E+00
(PID.TID 0000.0001) %MON pe_b_mean                    =   5.2775745078495E-06
(PID.TID 0000.0001) %MON ke_max                       =   6.5306173025559E-03
(PID.TID 0000.0001) %MON ke_mean                      =   8.3563541218688E-04
(PID.TID 0000.0001) %MON ke_vol                       =   6.8893493896486E+15
(PID.TID 0000.0001) %MON vort_r_min                   =  -1.1155076147402E-06
(PID.TID 0000.0001) %MON vort_r_max                   =   2.5498539165019E-06
(PID.TID 0000.0001) %MON vort_a_mean                  =   1.0600000000000E-04
(PID.TID 0000.0001) %MON vort_a_sd                    =   3.5462056020040E-06
(PID.TID 0000.0001) %MON vort_p_mean                  =   1.1652272308690E-04
(PID.TID 0000.0001) %MON vort_p_sd                    =   4.1776832807687E-05
(PID.TID 0000.0001) %MON surfExpan_theta_mean         =  -1.4001797252503E-20
(PID.TID 0000.0001) %MON surfExpan_salt_mean          =  -2.0996222044940E-20
(PID.TID 0000.0001) // =======================================================
(PID.TID 0000.0001) // End MONITOR dynamic field statistics
(PID.TID 0000.0001) // =======================================================
 cg2d: Sum(rhs),rhsMax =  -2.04535351682194E-03  1.62118515080087E-01
 cg2d: Sum(rhs),rhsMax =  -2.04573164514663E-03  1.62125522366032E-01
 cg2d: Sum(rhs),rhsMax =  -2.04611083708317E-03  1.62132519101410E-01
 cg2d: Sum(rhs),rhsMax =  -2.04649108689361E-03  1.62139505296147E-01
 cg2d: Sum(rhs),rhsMax =  -2.04687238858722E-03  1.62146480960185E-01
 cg2d: Sum(rhs),rhsMax =  -2.04725473654981E-03  1.62153446103477E-01
 cg2d: Sum(rhs),rhsMax =  -2.04763812444419E-03  1.62160400735980E-01
 cg2d: Sum(rhs),rhsMax =  -2.04802254696635E-03  1.62167344867668E-01
 cg2d: Sum(rhs),rhsMax =  -2.04840799751687E-03  1.62174278508523E-01
 cg2d: Sum(rhs),rhsMax =  -2.04879447119332E-03  1.62181201668540E-01
 cg2d: Sum(rhs),rhsMax =  -2.04918196151366E-03  1.62188114357722E-01
 cg2d: Sum(rhs),rhsMax =  -2.04957046304743E-03  1.62195016586082E-01
 cg2d: Sum(rhs),rhsMax =  -2.04995996955435E-03  1.62201908363644E-01
 cg2d: Sum(rhs),rhsMax =  -2.05035047543708E-03  1.62208789700450E-01
 cg2d: Sum(rhs),rhsMax =  -2.05074197450235E-03  1.62215660606539E-01
 cg2d: Sum(rhs),rhsMax =  -2.05113446146090E-03  1.62222521091969E-01
 cg2d: Sum(rhs),rhsMax =  -2.05152792993429E-03  1.62229371166807E-01
 cg2d: Sum(rhs),rhsMax =  -2.05192237438321E-03  1.62236210841134E-01
 cg2d: Sum(rhs),rhsMax =  -2.05231778898233E-03  1.62243040125033E-01
 cg2d: Sum(rhs),rhsMax =  -2.05271416784652E-03  1.62249859028603E-01
 cg2d: Sum(rhs),rhsMax =  -2.05311150482109E-03  1.62256667561955E-01
 cg2d: Sum(rhs),rhsMax =  -2.05350979415755E-03  1.62263465735204E-01
 cg2d: Sum(rhs),rhsMax =  -2.05390903060342E-03  1.62270253558479E-01
 cg2d: Sum(rhs),rhsMax =  -2.05430920776892E-03  1.62277031041920E-01
 cg2d: Sum(rhs),rhsMax =  -2.05471031992296E-03  1.62283798195677E-01
 cg2d: Sum(rhs),rhsMax =  -2.05511236140299E-03  1.62290555029909E-01
 cg2d: Sum(rhs),rhsMax =  -2.05551532629812E-03  1.62297301554785E-01
 cg2d: Sum(rhs),rhsMax =  -2.05591610658139E-03  1.62304282683458E-01
 cg2d: Sum(rhs),rhsMax =  -2.05631440553509E-03  1.62311521285398E-01
 cg2d: Sum(rhs),rhsMax =  -2.05671361168902E-03  1.62318749334281E-01
 cg2d: Sum(rhs),rhsMax =  -2.05711371981836E-03  1.62325966840296E-01
 cg2d: Sum(rhs),rhsMax =  -2.05751472371570E-03  1.62333173813643E-01
 cg2d: Sum(rhs),rhsMax =  -2.05791661774395E-03  1.62340370264537E-01
 cg2d: Sum(rhs),rhsMax =  -2.05831939613348E-03  1.62347556203204E-01
 cg2d: Sum(rhs),rhsMax =  -2.05872305298131E-03  1.62354731639884E-01
 cg2d: Sum(rhs),rhsMax =  -2.05912758277406E-03  1.62361896584826E-01
 cg2d: Sum(rhs),rhsMax =  -2.05953297924617E-03  1.62369051048294E-01
 cg2d: Sum(rhs),rhsMax =  -2.05993923713201E-03  1.62376195040562E-01
 cg2d: Sum(rhs),rhsMax =  -2.06034635036604E-03  1.62383328571917E-01
 cg2d: Sum(rhs),rhsMax =  -2.06075431345812E-03  1.62390451652660E-01
 cg2d: Sum(rhs),rhsMax =  -2.06116312033773E-03  1.62397564293099E-01
 cg2d: Sum(rhs),rhsMax =  -2.06157276582140E-03  1.62404666503560E-01
 cg2d: Sum(rhs),rhsMax =  -2.06198324371392E-03  1.62411758294378E-01
 cg2d: Sum(rhs),rhsMax =  -2.06239454831936E-03  1.62418839675896E-01
 cg2d: Sum(rhs),rhsMax =  -2.06280667416887E-03  1.62425910658479E-01
 cg2d: Sum(rhs),rhsMax =  -2.06321961534444E-03  1.62432971252493E-01
 cg2d: Sum(rhs),rhsMax =  -2.06363336634189E-03  1.62440021468322E-01
 cg2d: Sum(rhs),rhsMax =  -2.06404792160907E-03  1.62447061316361E-01
 cg2d: Sum(rhs),rhsMax =  -2.06446327497791E-03  1.62454090807016E-01
 cg2d: Sum(rhs),rhsMax =  -2.06487942134119E-03  1.62461109950705E-01
 cg2d: Sum(rhs),rhsMax =  -2.06529635480250E-03  1.62468118757858E-01
 cg2d: Sum(rhs),rhsMax =  -2.06571406928110E-03  1.62475117238915E-01
 cg2d: Sum(rhs),rhsMax =  -2.06613255996152E-03  1.62482105404332E-01
 cg2d: Sum(rhs),rhsMax =  -2.06655182080304E-03  1.62489083264569E-01
 cg2d: Sum(rhs),rhsMax =  -2.06697184587775E-03  1.62496050830105E-01
 cg2d: Sum(rhs),rhsMax =  -2.06739263010463E-03  1.62503008111430E-01
 cg2d: Sum(rhs),rhsMax =  -2.06781416762731E-03  1.62509955119039E-01
 cg2d: Sum(rhs),rhsMax =  -2.06823645288895E-03  1.62516891863446E-01
 cg2d: Sum(rhs),rhsMax =  -2.06865948043828E-03  1.62523818355174E-01
 cg2d: Sum(rhs),rhsMax =  -2.06908324483758E-03  1.62530734604754E-01
 cg2d: Sum(rhs),rhsMax =  -2.06950774005619E-03  1.62537640622734E-01
 cg2d: Sum(rhs),rhsMax =  -2.06993296080669E-03  1.62544536419668E-01
 cg2d: Sum(rhs),rhsMax =  -2.07035890147266E-03  1.62551422006127E-01
 cg2d: Sum(rhs),rhsMax =  -2.07078555683799E-03  1.62558297392686E-01
 cg2d: Sum(rhs),rhsMax =  -2.07121292093298E-03  1.62565162589940E-01
 cg2d: Sum(rhs),rhsMax =  -2.07164098856858E-03  1.62572017608491E-01
 cg2d: Sum(rhs),rhsMax =  -2.07206975392187E-03  1.62578862458949E-01
 cg2d: Sum(rhs),rhsMax =  -2.07249921191502E-03  1.62585697151939E-01
 cg2d: Sum(rhs),rhsMax =  -2.07292935668148E-03  1.62592521698098E-01
 cg2d: Sum(rhs),rhsMax =  -2.07336018312452E-03  1.62599336108072E-01
 cg2d: Sum(rhs),rhsMax =  -2.07379168578299E-03  1.62606140392520E-01
 cg2d: Sum(rhs),rhsMax =  -2.07422385895863E-03  1.62612934562110E-01
(PID.TID 0000.0001)      cg2d_init_res =   1.28422442218629E-03
(PID.TID 0000.0001)      cg2d_iters(min,last) =      -1      76
(PID.TID 0000.0001)      cg2d_last_res =   9.48720280533615E-08
(PID.TID 0000.0001) // =======================================================
(PID.TID 0000.0001) // Begin MONITOR dynamic field statistics
(PID.TID 0000.0001) // =======================================================
(PID.TID 0000.0001) %MON time_tsnumber                =                  6984
(PID.TID 0000.0001) %MON time_secondsf                =   8.3808000000000E+06
(PID.TID 0000.0001) %MON dynstat_eta_max              =   1.7335565497240E-01
(PID.TID 0000.0001) %MON dynstat_eta_min              =  -6.7453934311874E-02
(PID.TID 0000.0001) %MON dynstat_eta_mean             =   1.6860360699287E-06
(PID.TID 0000.0001) %MON dynstat_eta_sd               =   7.2279575948911E-02
(PID.TID 0000.0001) %MON dynstat_eta_del2             =   2.3227521886553E-05
(PID.TID 0000.0001) %MON dynstat_uvel_max             =   1.1499269107496E-01
(PID.TID 0000.0001) %MON dynstat_uvel_min             =  -6.3865894837113E-02
(PID.TID 0000.0001) %MON dynstat_uvel_mean            =   4.3602448627383E-08
(PID.TID 0000.0001) %MON dynstat_uvel_sd              =   3.1152469688342E-02
(PID.TID 0000.0001) %MON dynstat_uvel_del2            =   5.8006469384107E-05
(PID.TID 0000.0001) %MON dynstat_vvel_max             =   8.3744316216177E-02
(PID.TID 0000.0001) %MON dynstat_vvel_min             =  -7.4116479244642E-02
(PID.TID 0000.0001) %MON dynstat_vvel_mean            =   1.8862528955759E-07
(PID.TID 0000.0001) %MON dynstat_vvel_sd              =   2.7464563592261E-02
(PID.TID 0000.0001) %MON dynstat_vvel_del2            =   4.4028241863548E-05
(PID.TID 0000.0001) %MON dynstat_wvel_max             =   1.9378614428861E-08
(PID.TID 0000.0001) %MON dynstat_wvel_min             =  -1.3399451373843E-08
(PID.TID 0000.0001) %MON dynstat_wvel_mean            =   6.2968613039832E-24
(PID.TID 0000.0001) %MON dynstat_wvel_sd              =   7.0735743094541E-09
(PID.TID 0000.0001) %MON dynstat_wvel_del2            =   3.4948394105596E-12
(PID.TID 0000.0001) %MON dynstat_theta_max            =   2.0000000000000E+01
(PID.TID 0000.0001) %MON dynstat_theta_min            =   2.0000000000000E+01
(PID.TID 0000.0001) %MON dynstat_theta_mean           =   2.0000000000000E+01
(PID.TID 0000.0001) %MON dynstat_theta_sd             =   3.8014036363165E-13
(PID.TID 0000.0001) %MON dynstat_theta_del2           =   0.0000000000000E+00
(PID.TID 0000.0001) %MON dynstat_salt_max             =   3.0000000000000E+01
(PID.TID 0000.0001) %MON dynstat_salt_min             =   3.0000000000000E+01
(PID.TID 0000.0001) %MON dynstat_salt_mean            =   2.9999999999999E+01
(PID.TID 0000.0001) %MON dynstat_salt_sd              =   5.5777604757167E-13
(PID.TID 0000.0001) %MON dynstat_salt_del2            =   0.0000000000000E+00
(PID.TID 0000.0001) %MON trAdv_CFL_u_max              =   6.8970013915723E-03
(PID.TID 0000.0001) %MON trAdv_CFL_v_max              =   5.0252685141783E-03
(PID.TID 0000.0001) %MON trAdv_CFL_w_max              =   5.0771372886163E-09
(PID.TID 0000.0001) %MON advcfl_uvel_max              =   6.8995614644974E-03
(PID.TID 0000.0001) %MON advcfl_vvel_max              =   5.0246589729706E-03
(PID.TID 0000.0001) %MON advcfl_wvel_max              =   9.3017349258531E-09
(PID.TID 0000.0001) %MON advcfl_W_hf_max              =   0.0000000000000E+00
(PID.TID 0000.0001) %MON pe_b_mean                    =   5.3561716401962E-06
(PID.TID 0000.0001) %MON ke_max                       =   6.6115443452461E-03
(PID.TID 0000.0001) %MON ke_mean                      =   8.4653116459766E-04
(PID.TID 0000.0001) %MON ke_vol                       =   6.8893493896486E+15
(PID.TID 0000.0001) %MON vort_r_min                   =  -1.1195416995644E-06
(PID.TID 0000.0001) %MON vort_r_max                   =   2.5638192686996E-06
(PID.TID 0000.0001) %MON vort_a_mean                  =   1.0600000000000E-04
(PID.TID 0000.0001) %MON vort_a_sd                    =   3.5464094122420E-06
(PID.TID 0000.0001) %MON vort_p_mean                  =   1.1652272308690E-04
(PID.TID 0000.0001) %MON vort_p_sd                    =   4.1777129561767E-05
(PID.TID 0000.0001) %MON surfExpan_theta_mean         =   1.3516101818014E-22
(PID.TID 0000.0001) %MON surfExpan_salt_mean          =   2.0495210467036E-22
(PID.TID 0000.0001) // =======================================================
(PID.TID 0000.0001) // End MONITOR dynamic field statistics
(PID.TID 0000.0001) // =======================================================
 cg2d: Sum(rhs),rhsMax =  -2.07465669710348E-03  1.62619718627522E-01
 cg2d: Sum(rhs),rhsMax =  -2.07509019521203E-03  1.62626492599446E-01
 cg2d: Sum(rhs),rhsMax =  -2.07552434786239E-03  1.62633256488585E-01
 cg2d: Sum(rhs),rhsMax =  -2.07595914935662E-03  1.62640010305651E-01
 cg2d: Sum(rhs),rhsMax =  -2.07639459438996E-03  1.62646754061370E-01
 cg2d: Sum(rhs),rhsMax =  -2.07683067789000E-03  1.62653487766476E-01
 cg2d: Sum(rhs),rhsMax =  -2.07726739398114E-03  1.62660211431713E-01
 cg2d: Sum(rhs),rhsMax =  -2.07770473763552E-03  1.62666925067839E-01
 cg2d: Sum(rhs),rhsMax =  -2.07814270358611E-03  1.62673628685621E-01
 cg2d: Sum(rhs),rhsMax =  -2.07858128662866E-03  1.62680322295837E-01
 cg2d: Sum(rhs),rhsMax =  -2.07902048110244E-03  1.62687005909278E-01
 cg2d: Sum(rhs),rhsMax =  -2.07946028172040E-03  1.62693679536739E-01
 cg2d: Sum(rhs),rhsMax =  -2.07990068342067E-03  1.62700343189035E-01
 cg2d: Sum(rhs),rhsMax =  -2.08034168074311E-03  1.62706996876984E-01
 cg2d: Sum(rhs),rhsMax =  -2.08078326895905E-03  1.62713640611418E-01
 cg2d: Sum(rhs),rhsMax =  -2.08122544237060E-03  1.62720274403182E-01
 cg2d: Sum(rhs),rhsMax =  -2.08166819547404E-03  1.62726898263125E-01
 cg2d: Sum(rhs),rhsMax =  -2.08211152338275E-03  1.62733512202111E-01
 cg2d: Sum(rhs),rhsMax =  -2.08255542088305E-03  1.62740116231016E-01
 cg2d: Sum(rhs),rhsMax =  -2.08299988246281E-03  1.62746710360722E-01
 cg2d: Sum(rhs),rhsMax =  -2.08344490344533E-03  1.62753294602123E-01
 cg2d: Sum(rhs),rhsMax =  -2.08389047815377E-03  1.62759868966127E-01
 cg2d: Sum(rhs),rhsMax =  -2.08433660186157E-03  1.62766433463647E-01
 cg2d: Sum(rhs),rhsMax =  -2.08478326935520E-03  1.62772988105613E-01
 cg2d: Sum(rhs),rhsMax =  -2.08523047530064E-03  1.62779532902956E-01
 cg2d: Sum(rhs),rhsMax =  -2.08567821431148E-03  1.62786067866625E-01
 cg2d: Sum(rhs),rhsMax =  -2.08612648194705E-03  1.62792593007577E-01
 cg2d: Sum(rhs),rhsMax =  -2.08657527262878E-03  1.62799108336777E-01
 cg2d: Sum(rhs),rhsMax =  -2.08702458159838E-03  1.62805613865205E-01
 cg2d: Sum(rhs),rhsMax =  -2.08747440362227E-03  1.62812109603845E-01
 cg2d: Sum(rhs),rhsMax =  -2.08792473366538E-03  1.62818595563700E-01
 cg2d: Sum(rhs),rhsMax =  -2.08837556651996E-03  1.62825071755771E-01
 cg2d: Sum(rhs),rhsMax =  -2.08882689727535E-03  1.62831538191080E-01
 cg2d: Sum(rhs),rhsMax =  -2.08927872116162E-03  1.62837994880653E-01
 cg2d: Sum(rhs),rhsMax =  -2.08973103277284E-03  1.62844441835528E-01
 cg2d: Sum(rhs),rhsMax =  -2.09018382721335E-03  1.62850879066753E-01
 cg2d: Sum(rhs),rhsMax =  -2.09063709937482E-03  1.62857306585385E-01
 cg2d: Sum(rhs),rhsMax =  -2.09109084481894E-03  1.62863724402492E-01
 cg2d: Sum(rhs),rhsMax =  -2.09154505833544E-03  1.62870132529152E-01
 cg2d: Sum(rhs),rhsMax =  -2.09199973453952E-03  1.62876530976452E-01
 cg2d: Sum(rhs),rhsMax =  -2.09245486926826E-03  1.62882919755487E-01
 cg2d: Sum(rhs),rhsMax =  -2.09291045704890E-03  1.62889298877370E-01
 cg2d: Sum(rhs),rhsMax =  -2.09336649327743E-03  1.62895668353209E-01
 cg2d: Sum(rhs),rhsMax =  -2.09382297297143E-03  1.62902028194138E-01
 cg2d: Sum(rhs),rhsMax =  -2.09427989106338E-03  1.62908378411290E-01
 cg2d: Sum(rhs),rhsMax =  -2.09473724295199E-03  1.62914719015810E-01
 cg2d: Sum(rhs),rhsMax =  -2.09519502371941E-03  1.62921050018854E-01
 cg2d: Sum(rhs),rhsMax =  -2.09565322855422E-03  1.62927371431590E-01
 cg2d: Sum(rhs),rhsMax =  -2.09611185269921E-03  1.62933683265188E-01
 cg2d: Sum(rhs),rhsMax =  -2.09657089143117E-03  1.62939985530836E-01
 cg2d: Sum(rhs),rhsMax =  -2.09703033960351E-03  1.62946278239726E-01
 cg2d: Sum(rhs),rhsMax =  -2.09749019234536E-03  1.62952561403061E-01
 cg2d: Sum(rhs),rhsMax =  -2.09795044562334E-03  1.62958835032054E-01
 cg2d: Sum(rhs),rhsMax =  -2.09841109388525E-03  1.62965099137928E-01
 cg2d: Sum(rhs),rhsMax =  -2.09887213285766E-03  1.62971353731914E-01
 cg2d: Sum(rhs),rhsMax =  -2.09933355815423E-03  1.62977598825251E-01
 cg2d: Sum(rhs),rhsMax =  -2.09979536441418E-03  1.62983834429190E-01
 cg2d: Sum(rhs),rhsMax =  -2.10025754695664E-03  1.62990060554993E-01
 cg2d: Sum(rhs),rhsMax =  -2.10072010098320E-03  1.62996277213925E-01
 cg2d: Sum(rhs),rhsMax =  -2.10118302256043E-03  1.63002484417267E-01
 cg2d: Sum(rhs),rhsMax =  -2.10164630616653E-03  1.63008682176305E-01
 cg2d: Sum(rhs),rhsMax =  -2.10210994820509E-03  1.63014870502337E-01
 cg2d: Sum(rhs),rhsMax =  -2.10257394311003E-03  1.63021049406663E-01
 cg2d: Sum(rhs),rhsMax =  -2.10303828675378E-03  1.63027218900604E-01
 cg2d: Sum(rhs),rhsMax =  -2.10350297445902E-03  1.63033378995481E-01
 cg2d: Sum(rhs),rhsMax =  -2.10396800178880E-03  1.63039529702626E-01
 cg2d: Sum(rhs),rhsMax =  -2.10443336377880E-03  1.63045671033382E-01
 cg2d: Sum(rhs),rhsMax =  -2.10489905596735E-03  1.63051802999100E-01
 cg2d: Sum(rhs),rhsMax =  -2.10536507396530E-03  1.63057925611138E-01
 cg2d: Sum(rhs),rhsMax =  -2.10583141342769E-03  1.63064038880863E-01
 cg2d: Sum(rhs),rhsMax =  -2.10629806937956E-03  1.63070142819658E-01
 cg2d: Sum(rhs),rhsMax =  -2.10676503774813E-03  1.63076237438907E-01
(PID.TID 0000.0001)      cg2d_init_res =   1.26501093739984E-03
(PID.TID 0000.0001)      cg2d_iters(min,last) =      -1      76
(PID.TID 0000.0001)      cg2d_last_res =   9.44434010998149E-08
(PID.TID 0000.0001) // =======================================================
(PID.TID 0000.0001) // Begin MONITOR dynamic field statistics
(PID.TID 0000.0001) // =======================================================
(PID.TID 0000.0001) %MON time_tsnumber                =                  7056
(PID.TID 0000.0001) %MON time_secondsf                =   8.4672000000000E+06
(PID.TID 0000.0001) %MON dynstat_eta_max              =   1.7480993037433E-01
(PID.TID 0000.0001) %MON dynstat_eta_min              =  -6.7791849144127E-02
(PID.TID 0000.0001) %MON dynstat_eta_mean             =   1.7173812602171E-06
(PID.TID 0000.0001) %MON dynstat_eta_sd               =   7.2810383754085E-02
(PID.TID 0000.0001) %MON dynstat_eta_del2             =   2.3343578920415E-05
(PID.TID 0000.0001) %MON dynstat_uvel_max             =   1.1567507132246E-01
(PID.TID 0000.0001) %MON dynstat_uvel_min             =  -6.4634322347031E-02
(PID.TID 0000.0001) %MON dynstat_uvel_mean            =   4.9062652579191E-08
(PID.TID 0000.0001) %MON dynstat_uvel_sd              =   3.1364694086634E-02
(PID.TID 0000.0001) %MON dynstat_uvel_del2            =   5.8402272877381E-05
(PID.TID 0000.0001) %MON dynstat_vvel_max             =   8.2995746432000E-02
(PID.TID 0000.0001) %MON dynstat_vvel_min             =  -7.4563883350185E-02
(PID.TID 0000.0001) %MON dynstat_vvel_mean            =   1.8321681857626E-07
(PID.TID 0000.0001) %MON dynstat_vvel_sd              =   2.7628761167973E-02
(PID.TID 0000.0001) %MON dynstat_vvel_del2            =   4.3736596622099E-05
(PID.TID 0000.0001) %MON dynstat_wvel_max             =   1.9263355947041E-08
(PID.TID 0000.0001) %MON dynstat_wvel_min             =  -1.3264072062448E-08
(PID.TID 0000.0001) %MON dynstat_wvel_mean            =  -7.6964948271375E-21
(PID.TID 0000.0001) %MON dynstat_wvel_sd              =   7.0529146037306E-09
(PID.TID 0000.0001) %MON dynstat_wvel_del2            =   3.4664217474041E-12
(PID.TID 0000.0001) %MON dynstat_theta_max            =   2.0000000000000E+01
(PID.TID 0000.0001) %MON dynstat_theta_min            =   2.0000000000000E+01
(PID.TID 0000.0001) %MON dynstat_theta_mean           =   2.0000000000000E+01
(PID.TID 0000.0001) %MON dynstat_theta_sd             =   3.8014036363165E-13
(PID.TID 0000.0001) %MON dynstat_theta_del2           =   0.0000000000000E+00
(PID.TID 0000.0001) %MON dynstat_salt_max             =   3.0000000000000E+01
(PID.TID 0000.0001) %MON dynstat_salt_min             =   3.0000000000000E+01
(PID.TID 0000.0001) %MON dynstat_salt_mean            =   2.9999999999999E+01
(PID.TID 0000.0001) %MON dynstat_salt_sd              =   5.5777604757167E-13
(PID.TID 0000.0001) %MON dynstat_salt_del2            =   0.0000000000000E+00
(PID.TID 0000.0001) %MON trAdv_CFL_u_max              =   6.9379678385586E-03
(PID.TID 0000.0001) %MON trAdv_CFL_v_max              =   4.9803809200192E-03
(PID.TID 0000.0001) %MON trAdv_CFL_w_max              =   5.0469715748041E-09
(PID.TID 0000.0001) %MON advcfl_uvel_max              =   6.9405042793479E-03
(PID.TID 0000.0001) %MON advcfl_vvel_max              =   4.9797447859200E-03
(PID.TID 0000.0001) %MON advcfl_wvel_max              =   9.2464108545799E-09
(PID.TID 0000.0001) %MON advcfl_W_hf_max              =   0.0000000000000E+00
(PID.TID 0000.0001) %MON pe_b_mean                    =   5.4351299702265E-06
(PID.TID 0000.0001) %MON ke_max                       =   6.6934615050099E-03
(PID.TID 0000.0001) %MON ke_mean                      =   8.5748293302905E-04
(PID.TID 0000.0001) %MON ke_vol                       =   6.8893493896486E+15
(PID.TID 0000.0001) %MON vort_r_min                   =  -1.1235258848391E-06
(PID.TID 0000.0001) %MON vort_r_max                   =   2.5767527945509E-06
(PID.TID 0000.0001) %MON vort_a_mean                  =   1.0600000000000E-04
(PID.TID 0000.0001) %MON vort_a_sd                    =   3.5466080074603E-06
(PID.TID 0000.0001) %MON vort_p_mean                  =   1.1652272308690E-04
(PID.TID 0000.0001) %MON vort_p_sd                    =   4.1777425656177E-05
(PID.TID 0000.0001) %MON surfExpan_theta_mean         =  -1.5392629393318E-19
(PID.TID 0000.0001) %MON surfExpan_salt_mean          =  -2.3089512524166E-19
(PID.TID 0000.0001) // =======================================================
(PID.TID 0000.0001) // End MONITOR dynamic field statistics
(PID.TID 0000.0001) // =======================================================
 cg2d: Sum(rhs),rhsMax =  -2.10723231381086E-03  1.63082322750003E-01
 cg2d: Sum(rhs),rhsMax =  -2.10769989300377E-03  1.63088398764353E-01
 cg2d: Sum(rhs),rhsMax =  -2.10816777123970E-03  1.63094465493367E-01
 cg2d: Sum(rhs),rhsMax =  -2.10863594407807E-03  1.63100522948470E-01
 cg2d: Sum(rhs),rhsMax =  -2.10910440632573E-03  1.63106571141086E-01
 cg2d: Sum(rhs),rhsMax =  -2.10957315447062E-03  1.63112610082661E-01
 cg2d: Sum(rhs),rhsMax =  -2.11004218385575E-03  1.63118639784637E-01
 cg2d: Sum(rhs),rhsMax =  -2.11051149005525E-03  1.63124660258474E-01
 cg2d: Sum(rhs),rhsMax =  -2.11098106859795E-03  1.63130671515636E-01
 cg2d: Sum(rhs),rhsMax =  -2.11145091501077E-03  1.63136673567593E-01
 cg2d: Sum(rhs),rhsMax =  -2.11192102523054E-03  1.63142666425830E-01
 cg2d: Sum(rhs),rhsMax =  -2.11239139467838E-03  1.63148650101836E-01
 cg2d: Sum(rhs),rhsMax =  -2.11286201953252E-03  1.63154624607109E-01
 cg2d: Sum(rhs),rhsMax =  -2.11333289505904E-03  1.63160589953158E-01
 cg2d: Sum(rhs),rhsMax =  -2.11380401680604E-03  1.63166546151498E-01
 cg2d: Sum(rhs),rhsMax =  -2.11427538101864E-03  1.63172493213650E-01
 cg2d: Sum(rhs),rhsMax =  -2.11474698310305E-03  1.63178431151150E-01
 cg2d: Sum(rhs),rhsMax =  -2.11521881902998E-03  1.63184359975538E-01
 cg2d: Sum(rhs),rhsMax =  -2.11569088443915E-03  1.63190279698358E-01
 cg2d: Sum(rhs),rhsMax =  -2.11616317526057E-03  1.63196190331172E-01
 cg2d: Sum(rhs),rhsMax =  -2.11663568709181E-03  1.63202091885544E-01
 cg2d: Sum(rhs),rhsMax =  -2.11710841597484E-03  1.63207984373048E-01
 cg2d: Sum(rhs),rhsMax =  -2.11758135757393E-03  1.63213867805261E-01
 cg2d: Sum(rhs),rhsMax =  -2.11805450738421E-03  1.63219742193778E-01
 cg2d: Sum(rhs),rhsMax =  -2.11852786180862E-03  1.63225607550194E-01
 cg2d: Sum(rhs),rhsMax =  -2.11900141653673E-03  1.63231463886115E-01
 cg2d: Sum(rhs),rhsMax =  -2.11947516800072E-03  1.63237311213154E-01
 cg2d: Sum(rhs),rhsMax =  -2.11994911126733E-03  1.63243149542933E-01
 cg2d: Sum(rhs),rhsMax =  -2.12042324231891E-03  1.63248978887083E-01
 cg2d: Sum(rhs),rhsMax =  -2.12089755794248E-03  1.63254799257239E-01
 cg2d: Sum(rhs),rhsMax =  -2.12137205329023E-03  1.63260610665049E-01
 cg2d: Sum(rhs),rhsMax =  -2.12184672438150E-03  1.63266413122162E-01
 cg2d: Sum(rhs),rhsMax =  -2.12232156726003E-03  1.63272206640243E-01
 cg2d: Sum(rhs),rhsMax =  -2.12279657804033E-03  1.63277991230962E-01
 cg2d: Sum(rhs),rhsMax =  -2.12327175302761E-03  1.63283766905991E-01
 cg2d: Sum(rhs),rhsMax =  -2.12374708757554E-03  1.63289533677017E-01
 cg2d: Sum(rhs),rhsMax =  -2.12422257839062E-03  1.63295291555731E-01
 cg2d: Sum(rhs),rhsMax =  -2.12469822101805E-03  1.63301040553834E-01
 cg2d: Sum(rhs),rhsMax =  -2.12517401164972E-03  1.63306780683031E-01
 cg2d: Sum(rhs),rhsMax =  -2.12564994666612E-03  1.63312511955039E-01
 cg2d: Sum(rhs),rhsMax =  -2.12612602142618E-03  1.63318234381579E-01
 cg2d: Sum(rhs),rhsMax =  -2.12660223278198E-03  1.63323947974382E-01
 cg2d: Sum(rhs),rhsMax =  -2.12707857675491E-03  1.63329652745185E-01
 cg2d: Sum(rhs),rhsMax =  -2.12755504929411E-03  1.63335348705732E-01
 cg2d: Sum(rhs),rhsMax =  -2.12803164666518E-03  1.63341035867777E-01
 cg2d: Sum(rhs),rhsMax =  -2.12850836496188E-03  1.63346714243077E-01
 cg2d: Sum(rhs),rhsMax =  -2.12898520042188E-03  1.63352383843404E-01
 cg2d: Sum(rhs),rhsMax =  -2.12946214929788E-03  1.63358044680527E-01
 cg2d: Sum(rhs),rhsMax =  -2.12993920741310E-03  1.63363696766233E-01
 cg2d: Sum(rhs),rhsMax =  -2.13041637151072E-03  1.63369340112307E-01
 cg2d: Sum(rhs),rhsMax =  -2.13089363757452E-03  1.63374974730547E-01
 cg2d: Sum(rhs),rhsMax =  -2.13137100183995E-03  1.63380600632754E-01
 cg2d: Sum(rhs),rhsMax =  -2.13184846106846E-03  1.63386217830743E-01
 cg2d: Sum(rhs),rhsMax =  -2.13232601096646E-03  1.63391826336330E-01
 cg2d: Sum(rhs),rhsMax =  -2.13280364767924E-03  1.63397426161337E-01
 cg2d: Sum(rhs),rhsMax =  -2.13328136826251E-03  1.63403017317601E-01
 cg2d: Sum(rhs),rhsMax =  -2.13375916842385E-03  1.63408599816956E-01
 cg2d: Sum(rhs),rhsMax =  -2.13423704480792E-03  1.63414173671252E-01
 cg2d: Sum(rhs),rhsMax =  -2.13471499378244E-03  1.63419738892344E-01
 cg2d: Sum(rhs),rhsMax =  -2.13519301152713E-03  1.63425295492085E-01
 cg2d: Sum(rhs),rhsMax =  -2.13567109463447E-03  1.63430843482346E-01
 cg2d: Sum(rhs),rhsMax =  -2.13614923923229E-03  1.63436382875004E-01
 cg2d: Sum(rhs),rhsMax =  -2.13662744226690E-03  1.63441913681933E-01
 cg2d: Sum(rhs),rhsMax =  -2.13710569964058E-03  1.63447435915028E-01
 cg2d: Sum(rhs),rhsMax =  -2.13758400809933E-03  1.63452949586176E-01
 cg2d: Sum(rhs),rhsMax =  -2.13806236404499E-03  1.63458454707284E-01
 cg2d: Sum(rhs),rhsMax =  -2.13854076381664E-03  1.63463951290257E-01
 cg2d: Sum(rhs),rhsMax =  -2.13901920421849E-03  1.63469439347009E-01
 cg2d: Sum(rhs),rhsMax =  -2.13949768156866E-03  1.63474918889463E-01
 cg2d: Sum(rhs),rhsMax =  -2.13997619218046E-03  1.63480389929546E-01
 cg2d: Sum(rhs),rhsMax =  -2.14045473336880E-03  1.63485852479193E-01
 cg2d: Sum(rhs),rhsMax =  -2.14093330106199E-03  1.63491306550342E-01
(PID.TID 0000.0001)      cg2d_init_res =   1.24609636329710E-03
(PID.TID 0000.0001)      cg2d_iters(min,last) =      -1      76
(PID.TID 0000.0001)      cg2d_last_res =   9.36494188845412E-08
(PID.TID 0000.0001) // =======================================================
(PID.TID 0000.0001) // Begin MONITOR dynamic field statistics
(PID.TID 0000.0001) // =======================================================
(PID.TID 0000.0001) %MON time_tsnumber                =                  7128
(PID.TID 0000.0001) %MON time_secondsf                =   8.5536000000000E+06
(PID.TID 0000.0001) %MON dynstat_eta_max              =   1.7625971826647E-01
(PID.TID 0000.0001) %MON dynstat_eta_min              =  -6.8142196686321E-02
(PID.TID 0000.0001) %MON dynstat_eta_mean             =   1.7496724507865E-06
(PID.TID 0000.0001) %MON dynstat_eta_sd               =   7.3340031894046E-02
(PID.TID 0000.0001) %MON dynstat_eta_del2             =   2.3456404321092E-05
(PID.TID 0000.0001) %MON dynstat_uvel_max             =   1.1631491546732E-01
(PID.TID 0000.0001) %MON dynstat_uvel_min             =  -6.5399746141068E-02
(PID.TID 0000.0001) %MON dynstat_uvel_mean            =   5.4004592324096E-08
(PID.TID 0000.0001) %MON dynstat_uvel_sd              =   3.1575491839391E-02
(PID.TID 0000.0001) %MON dynstat_uvel_del2            =   5.8782084193822E-05
(PID.TID 0000.0001) %MON dynstat_vvel_max             =   8.2245279260583E-02
(PID.TID 0000.0001) %MON dynstat_vvel_min             =  -7.5019637934970E-02
(PID.TID 0000.0001) %MON dynstat_vvel_mean            =   1.7743788561101E-07
(PID.TID 0000.0001) %MON dynstat_vvel_sd              =   2.7794254868092E-02
(PID.TID 0000.0001) %MON dynstat_vvel_del2            =   4.3450087985535E-05
(PID.TID 0000.0001) %MON dynstat_wvel_max             =   1.9141356325126E-08
(PID.TID 0000.0001) %MON dynstat_wvel_min             =  -1.3181584612466E-08
(PID.TID 0000.0001) %MON dynstat_wvel_mean            =   5.1979463933094E-21
(PID.TID 0000.0001) %MON dynstat_wvel_sd              =   7.0340568004813E-09
(PID.TID 0000.0001) %MON dynstat_wvel_del2            =   3.4392011152741E-12
(PID.TID 0000.0001) %MON dynstat_theta_max            =   2.0000000000000E+01
(PID.TID 0000.0001) %MON dynstat_theta_min            =   2.0000000000000E+01
(PID.TID 0000.0001) %MON dynstat_theta_mean           =   2.0000000000000E+01
(PID.TID 0000.0001) %MON dynstat_theta_sd             =   3.8014036363165E-13
(PID.TID 0000.0001) %MON dynstat_theta_del2           =   0.0000000000000E+00
(PID.TID 0000.0001) %MON dynstat_salt_max             =   3.0000000000000E+01
(PID.TID 0000.0001) %MON dynstat_salt_min             =   3.0000000000000E+01
(PID.TID 0000.0001) %MON dynstat_salt_mean            =   2.9999999999999E+01
(PID.TID 0000.0001) %MON dynstat_salt_sd              =   5.5777604757167E-13
(PID.TID 0000.0001) %MON dynstat_salt_del2            =   0.0000000000000E+00
(PID.TID 0000.0001) %MON trAdv_CFL_u_max              =   6.9763829715686E-03
(PID.TID 0000.0001) %MON trAdv_CFL_v_max              =   4.9352613296456E-03
(PID.TID 0000.0001) %MON trAdv_CFL_w_max              =   5.0150304585791E-09
(PID.TID 0000.0001) %MON advcfl_uvel_max              =   6.9788949280394E-03
(PID.TID 0000.0001) %MON advcfl_vvel_max              =   4.9347167556350E-03
(PID.TID 0000.0001) %MON advcfl_wvel_max              =   9.1878510360606E-09
(PID.TID 0000.0001) %MON advcfl_W_hf_max              =   0.0000000000000E+00
(PID.TID 0000.0001) %MON pe_b_mean                    =   5.5144916406514E-06
(PID.TID 0000.0001) %MON ke_max                       =   6.7709839854657E-03
(PID.TID 0000.0001) %MON ke_mean                      =   8.6849651937886E-04
(PID.TID 0000.0001) %MON ke_vol                       =   6.8893493896486E+15
(PID.TID 0000.0001) %MON vort_r_min                   =  -1.1273537190586E-06
(PID.TID 0000.0001) %MON vort_r_max                   =   2.5886778245056E-06
(PID.TID 0000.0001) %MON vort_a_mean                  =   1.0600000000000E-04
(PID.TID 0000.0001) %MON vort_a_sd                    =   3.5468013894234E-06
(PID.TID 0000.0001) %MON vort_p_mean                  =   1.1652272308690E-04
(PID.TID 0000.0001) %MON vort_p_sd                    =   4.1777720772547E-05
(PID.TID 0000.0001) %MON surfExpan_theta_mean         =   1.0397387148784E-19
(PID.TID 0000.0001) %MON surfExpan_salt_mean          =   1.5593507226204E-19
(PID.TID 0000.0001) // =======================================================
(PID.TID 0000.0001) // End MONITOR dynamic field statistics
(PID.TID 0000.0001) // =======================================================
 cg2d: Sum(rhs),rhsMax =  -2.14141189187377E-03  1.63496752154946E-01
 cg2d: Sum(rhs),rhsMax =  -2.14189050240888E-03  1.63502189304957E-01
 cg2d: Sum(rhs),rhsMax =  -2.14236912927388E-03  1.63507618012334E-01
 cg2d: Sum(rhs),rhsMax =  -2.14284776923301E-03  1.63513038289046E-01
 cg2d: Sum(rhs),rhsMax =  -2.14332641905456E-03  1.63518450147065E-01
 cg2d: Sum(rhs),rhsMax =  -2.14380507522705E-03  1.63523853598370E-01
 cg2d: Sum(rhs),rhsMax =  -2.14428373388056E-03  1.63529248654949E-01
 cg2d: Sum(rhs),rhsMax =  -2.14476239221162E-03  1.63534635328796E-01
 cg2d: Sum(rhs),rhsMax =  -2.14524104731537E-03  1.63540013631906E-01
 cg2d: Sum(rhs),rhsMax =  -2.14571969515487E-03  1.63545383576287E-01
 cg2d: Sum(rhs),rhsMax =  -2.14619833306542E-03  1.63550745173949E-01
 cg2d: Sum(rhs),rhsMax =  -2.14667695713459E-03  1.63556098436910E-01
 cg2d: Sum(rhs),rhsMax =  -2.14715556469244E-03  1.63561443377190E-01
 cg2d: Sum(rhs),rhsMax =  -2.14763415260127E-03  1.63566780006825E-01
 cg2d: Sum(rhs),rhsMax =  -2.14811271681499E-03  1.63572108337847E-01
 cg2d: Sum(rhs),rhsMax =  -2.14859125488216E-03  1.63577428382300E-01
 cg2d: Sum(rhs),rhsMax =  -2.14906976321440E-03  1.63582740152228E-01
 cg2d: Sum(rhs),rhsMax =  -2.14954823897824E-03  1.63588043659690E-01
 cg2d: Sum(rhs),rhsMax =  -2.15002667900322E-03  1.63593338916742E-01
 cg2d: Sum(rhs),rhsMax =  -2.15050507977883E-03  1.63598625935451E-01
 cg2d: Sum(rhs),rhsMax =  -2.15098343840111E-03  1.63603904727890E-01
 cg2d: Sum(rhs),rhsMax =  -2.15146175179403E-03  1.63609175306136E-01
 cg2d: Sum(rhs),rhsMax =  -2.15194001694506E-03  1.63614437682272E-01
 cg2d: Sum(rhs),rhsMax =  -2.15241823074458E-03  1.63619691868386E-01
 cg2d: Sum(rhs),rhsMax =  -2.15289639015024E-03  1.63624937876575E-01
 cg2d: Sum(rhs),rhsMax =  -2.15337449181378E-03  1.63630175718938E-01
 cg2d: Sum(rhs),rhsMax =  -2.15385253288551E-03  1.63635405407584E-01
 cg2d: Sum(rhs),rhsMax =  -2.15433051087252E-03  1.63640626954624E-01
 cg2d: Sum(rhs),rhsMax =  -2.15480842220516E-03  1.63645840372176E-01
 cg2d: Sum(rhs),rhsMax =  -2.15528626390226E-03  1.63651045672361E-01
 cg2d: Sum(rhs),rhsMax =  -2.15576403329417E-03  1.63656242867312E-01
 cg2d: Sum(rhs),rhsMax =  -2.15624172704423E-03  1.63661431969159E-01
 cg2d: Sum(rhs),rhsMax =  -2.15671934273864E-03  1.63666612990046E-01
 cg2d: Sum(rhs),rhsMax =  -2.15719687692560E-03  1.63671785942116E-01
 cg2d: Sum(rhs),rhsMax =  -2.15767432672198E-03  1.63676950837523E-01
 cg2d: Sum(rhs),rhsMax =  -2.15815168954265E-03  1.63682107688419E-01
 cg2d: Sum(rhs),rhsMax =  -2.15862896242055E-03  1.63687256506971E-01
 cg2d: Sum(rhs),rhsMax =  -2.15910614219929E-03  1.63692397305341E-01
 cg2d: Sum(rhs),rhsMax =  -2.15958322663227E-03  1.63697530095705E-01
 cg2d: Sum(rhs),rhsMax =  -2.16006021246956E-03  1.63702654890241E-01
 cg2d: Sum(rhs),rhsMax =  -2.16053709692988E-03  1.63707771701131E-01
 cg2d: Sum(rhs),rhsMax =  -2.16101387731387E-03  1.63712880540559E-01
 cg2d: Sum(rhs),rhsMax =  -2.16149055073113E-03  1.63717981420725E-01
 cg2d: Sum(rhs),rhsMax =  -2.16196711423385E-03  1.63723074353825E-01
 cg2d: Sum(rhs),rhsMax =  -2.16244356555665E-03  1.63728159352064E-01
 cg2d: Sum(rhs),rhsMax =  -2.16291990180235E-03  1.63733236427647E-01
 cg2d: Sum(rhs),rhsMax =  -2.16339612001978E-03  1.63738305592793E-01
 cg2d: Sum(rhs),rhsMax =  -2.16387221755743E-03  1.63743366859719E-01
 cg2d: Sum(rhs),rhsMax =  -2.16434819223519E-03  1.63748420240648E-01
 cg2d: Sum(rhs),rhsMax =  -2.16482404059298E-03  1.63753465747809E-01
 cg2d: Sum(rhs),rhsMax =  -2.16529976063666E-03  1.63758503393438E-01
 cg2d: Sum(rhs),rhsMax =  -2.16577534903589E-03  1.63763533189772E-01
 cg2d: Sum(rhs),rhsMax =  -2.16625080362953E-03  1.63768555149053E-01
 cg2d: Sum(rhs),rhsMax =  -2.16672612172277E-03  1.63773569283535E-01
 cg2d: Sum(rhs),rhsMax =  -2.16720130105992E-03  1.63778575605466E-01
 cg2d: Sum(rhs),rhsMax =  -2.16767633827852E-03  1.63783574127106E-01
 cg2d: Sum(rhs),rhsMax =  -2.16815123150214E-03  1.63788564860719E-01
 cg2d: Sum(rhs),rhsMax =  -2.16862597782210E-03  1.63793547818569E-01
 cg2d: Sum(rhs),rhsMax =  -2.16910057440700E-03  1.63798523012932E-01
 cg2d: Sum(rhs),rhsMax =  -2.16957501960021E-03  1.63803490456083E-01
 cg2d: Sum(rhs),rhsMax =  -2.17004931026410E-03  1.63808450160307E-01
 cg2d: Sum(rhs),rhsMax =  -2.17052344400800E-03  1.63813402137884E-01
 cg2d: Sum(rhs),rhsMax =  -2.17099741857152E-03  1.63818346401109E-01
 cg2d: Sum(rhs),rhsMax =  -2.17147123107619E-03  1.63823282962276E-01
 cg2d: Sum(rhs),rhsMax =  -2.17194487955594E-03  1.63828211833685E-01
 cg2d: Sum(rhs),rhsMax =  -2.17241836121372E-03  1.63833133027641E-01
 cg2d: Sum(rhs),rhsMax =  -2.17289167376540E-03  1.63838046556450E-01
 cg2d: Sum(rhs),rhsMax =  -2.17336481521563E-03  1.63842952432426E-01
 cg2d: Sum(rhs),rhsMax =  -2.17383778253860E-03  1.63847850667889E-01
 cg2d: Sum(rhs),rhsMax =  -2.17431057364338E-03  1.63852741275159E-01
 cg2d: Sum(rhs),rhsMax =  -2.17478318618834E-03  1.63857624266559E-01
 cg2d: Sum(rhs),rhsMax =  -2.17525561757220E-03  1.63862499654422E-01
(PID.TID 0000.0001)      cg2d_init_res =   1.22755831331685E-03
(PID.TID 0000.0001)      cg2d_iters(min,last) =      -1      76
(PID.TID 0000.0001)      cg2d_last_res =   9.26317997456081E-08
(PID.TID 0000.0001) // =======================================================
(PID.TID 0000.0001) // Begin MONITOR dynamic field statistics
(PID.TID 0000.0001) // =======================================================
(PID.TID 0000.0001) %MON time_tsnumber                =                  7200
(PID.TID 0000.0001) %MON time_secondsf                =   8.6400000000000E+06
(PID.TID 0000.0001) %MON dynstat_eta_max              =   1.7770582233412E-01
(PID.TID 0000.0001) %MON dynstat_eta_min              =  -6.8504131872287E-02
(PID.TID 0000.0001) %MON dynstat_eta_mean             =   1.7817405523779E-06
(PID.TID 0000.0001) %MON dynstat_eta_sd               =   7.3868867579517E-02
(PID.TID 0000.0001) %MON dynstat_eta_del2             =   2.3565911549291E-05
(PID.TID 0000.0001) %MON dynstat_uvel_max             =   1.1693485505698E-01
(PID.TID 0000.0001) %MON dynstat_uvel_min             =  -6.6156026000593E-02
(PID.TID 0000.0001) %MON dynstat_uvel_mean            =   5.8229836422053E-08
(PID.TID 0000.0001) %MON dynstat_uvel_sd              =   3.1784683792210E-02
(PID.TID 0000.0001) %MON dynstat_uvel_del2            =   5.9145657716143E-05
(PID.TID 0000.0001) %MON dynstat_vvel_max             =   8.1575715338399E-02
(PID.TID 0000.0001) %MON dynstat_vvel_min             =  -7.5484876027169E-02
(PID.TID 0000.0001) %MON dynstat_vvel_mean            =   1.7136177335736E-07
(PID.TID 0000.0001) %MON dynstat_vvel_sd              =   2.7961457816210E-02
(PID.TID 0000.0001) %MON dynstat_vvel_del2            =   4.3169960064765E-05
(PID.TID 0000.0001) %MON dynstat_wvel_max             =   1.9015253005491E-08
(PID.TID 0000.0001) %MON dynstat_wvel_min             =  -1.2974122407613E-08
(PID.TID 0000.0001) %MON dynstat_wvel_mean            =   2.9898289236977E-21
(PID.TID 0000.0001) %MON dynstat_wvel_sd              =   7.0169468791037E-09
(PID.TID 0000.0001) %MON dynstat_wvel_del2            =   3.4133796240938E-12
(PID.TID 0000.0001) %MON dynstat_theta_max            =   2.0000000000000E+01
(PID.TID 0000.0001) %MON dynstat_theta_min            =   2.0000000000000E+01
(PID.TID 0000.0001) %MON dynstat_theta_mean           =   2.0000000000000E+01
(PID.TID 0000.0001) %MON dynstat_theta_sd             =   3.8014036363165E-13
(PID.TID 0000.0001) %MON dynstat_theta_del2           =   0.0000000000000E+00
(PID.TID 0000.0001) %MON dynstat_salt_max             =   3.0000000000000E+01
(PID.TID 0000.0001) %MON dynstat_salt_min             =   3.0000000000000E+01
(PID.TID 0000.0001) %MON dynstat_salt_mean            =   2.9999999999999E+01
(PID.TID 0000.0001) %MON dynstat_salt_sd              =   5.5777604757167E-13
(PID.TID 0000.0001) %MON dynstat_salt_del2            =   0.0000000000000E+00
(PID.TID 0000.0001) %MON trAdv_CFL_u_max              =   7.0139056033432E-03
(PID.TID 0000.0001) %MON trAdv_CFL_v_max              =   4.8951125763929E-03
(PID.TID 0000.0001) %MON trAdv_CFL_w_max              =   4.9837753901376E-09
(PID.TID 0000.0001) %MON advcfl_uvel_max              =   7.0160913034191E-03
(PID.TID 0000.0001) %MON advcfl_vvel_max              =   4.8945429203039E-03
(PID.TID 0000.0001) %MON advcfl_wvel_max              =   9.1273214426357E-09
(PID.TID 0000.0001) %MON advcfl_W_hf_max              =   0.0000000000000E+00
(PID.TID 0000.0001) %MON pe_b_mean                    =   5.5943054636268E-06
(PID.TID 0000.0001) %MON ke_max                       =   6.8440095122578E-03
(PID.TID 0000.0001) %MON ke_mean                      =   8.7957741907146E-04
(PID.TID 0000.0001) %MON ke_vol                       =   6.8893493896486E+15
(PID.TID 0000.0001) %MON vort_r_min                   =  -1.1310271418855E-06
(PID.TID 0000.0001) %MON vort_r_max                   =   2.5996263216700E-06
(PID.TID 0000.0001) %MON vort_a_mean                  =   1.0600000000000E-04
(PID.TID 0000.0001) %MON vort_a_sd                    =   3.5469895674025E-06
(PID.TID 0000.0001) %MON vort_p_mean                  =   1.1652272308690E-04
(PID.TID 0000.0001) %MON vort_p_sd                    =   4.1778014500709E-05
(PID.TID 0000.0001) %MON surfExpan_theta_mean         =   5.9795797942760E-20
(PID.TID 0000.0001) %MON surfExpan_salt_mean          =   8.9694804670002E-20
(PID.TID 0000.0001) // =======================================================
(PID.TID 0000.0001) // End MONITOR dynamic field statistics
(PID.TID 0000.0001) // =======================================================
 cg2d: Sum(rhs),rhsMax =  -2.17572786606375E-03  1.63867367451084E-01
 cg2d: Sum(rhs),rhsMax =  -2.17619992871469E-03  1.63872227668881E-01
 cg2d: Sum(rhs),rhsMax =  -2.17667180355586E-03  1.63877080320156E-01
 cg2d: Sum(rhs),rhsMax =  -2.17714348841810E-03  1.63881925417258E-01
 cg2d: Sum(rhs),rhsMax =  -2.17761498104352E-03  1.63886762972536E-01
 cg2d: Sum(rhs),rhsMax =  -2.17808627890380E-03  1.63891592998346E-01
 cg2d: Sum(rhs),rhsMax =  -2.17855737960086E-03  1.63896415507047E-01
 cg2d: Sum(rhs),rhsMax =  -2.17902828178729E-03  1.63901230511004E-01
 cg2d: Sum(rhs),rhsMax =  -2.17949898257887E-03  1.63906038022581E-01
 cg2d: Sum(rhs),rhsMax =  -2.17996947984976E-03  1.63910838054151E-01
 cg2d: Sum(rhs),rhsMax =  -2.18043977147428E-03  1.63915630618090E-01
 cg2d: Sum(rhs),rhsMax =  -2.18090985547678E-03  1.63920415726773E-01
 cg2d: Sum(rhs),rhsMax =  -2.18137972930900E-03  1.63925193392588E-01
 cg2d: Sum(rhs),rhsMax =  -2.18184939137844E-03  1.63929963627918E-01
 cg2d: Sum(rhs),rhsMax =  -2.18231883931311E-03  1.63934726445154E-01
 cg2d: Sum(rhs),rhsMax =  -2.18278807107490E-03  1.63939481856691E-01
 cg2d: Sum(rhs),rhsMax =  -2.18325708440943E-03  1.63944229874928E-01
 cg2d: Sum(rhs),rhsMax =  -2.18372587760311E-03  1.63948970512263E-01
 cg2d: Sum(rhs),rhsMax =  -2.18419444844928E-03  1.63953703781104E-01
 cg2d: Sum(rhs),rhsMax =  -2.18466279469129E-03  1.63958429693862E-01
 cg2d: Sum(rhs),rhsMax =  -2.18513091456664E-03  1.63963148262942E-01
 cg2d: Sum(rhs),rhsMax =  -2.18559880625141E-03  1.63967859500769E-01
 cg2d: Sum(rhs),rhsMax =  -2.18606646752441E-03  1.63972563419754E-01
 cg2d: Sum(rhs),rhsMax =  -2.18653389645898E-03  1.63977260032326E-01
 cg2d: Sum(rhs),rhsMax =  -2.18700109099246E-03  1.63981949350910E-01
 cg2d: Sum(rhs),rhsMax =  -2.18746804923664E-03  1.63986631387936E-01
 cg2d: Sum(rhs),rhsMax =  -2.18793476950954E-03  1.63991306155835E-01
 cg2d: Sum(rhs),rhsMax =  -2.18840124964419E-03  1.63995973667047E-01
 cg2d: Sum(rhs),rhsMax =  -2.18886748789881E-03  1.64000633934011E-01
 cg2d: Sum(rhs),rhsMax =  -2.18933348215916E-03  1.64005286969170E-01
 cg2d: Sum(rhs),rhsMax =  -2.18979923086865E-03  1.64009932784970E-01
 cg2d: Sum(rhs),rhsMax =  -2.19026473182152E-03  1.64014571393863E-01
 cg2d: Sum(rhs),rhsMax =  -2.19072998368331E-03  1.64019202808298E-01
 cg2d: Sum(rhs),rhsMax =  -2.19119498418395E-03  1.64023827040736E-01
 cg2d: Sum(rhs),rhsMax =  -2.19165973180526E-03  1.64028444103634E-01
 cg2d: Sum(rhs),rhsMax =  -2.19212422475917E-03  1.64033054009455E-01
 cg2d: Sum(rhs),rhsMax =  -2.19258846136817E-03  1.64037656770664E-01
 cg2d: Sum(rhs),rhsMax =  -2.19305243943001E-03  1.64042252399731E-01
 cg2d: Sum(rhs),rhsMax =  -2.19351615742113E-03  1.64046840909124E-01
 cg2d: Sum(rhs),rhsMax =  -2.19397961387986E-03  1.64051422311323E-01
 cg2d: Sum(rhs),rhsMax =  -2.19444280688610E-03  1.64055996618803E-01
 cg2d: Sum(rhs),rhsMax =  -2.19490573463591E-03  1.64060563844044E-01
 cg2d: Sum(rhs),rhsMax =  -2.19536839554097E-03  1.64065123999528E-01
 cg2d: Sum(rhs),rhsMax =  -2.19583078809802E-03  1.64069677097748E-01
 cg2d: Sum(rhs),rhsMax =  -2.19629291081010E-03  1.64074223151185E-01
 cg2d: Sum(rhs),rhsMax =  -2.19675476143405E-03  1.64078762172334E-01
 cg2d: Sum(rhs),rhsMax =  -2.19721633888398E-03  1.64083294173692E-01
 cg2d: Sum(rhs),rhsMax =  -2.19767764132242E-03  1.64087819167753E-01
 cg2d: Sum(rhs),rhsMax =  -2.19813866731390E-03  1.64092337167021E-01
 cg2d: Sum(rhs),rhsMax =  -2.19859941522530E-03  1.64096848183995E-01
 cg2d: Sum(rhs),rhsMax =  -2.19905988337141E-03  1.64101352231181E-01
 cg2d: Sum(rhs),rhsMax =  -2.19952007034361E-03  1.64105849321088E-01
 cg2d: Sum(rhs),rhsMax =  -2.19997997469823E-03  1.64110339466228E-01
 cg2d: Sum(rhs),rhsMax =  -2.20043959455417E-03  1.64114822679111E-01
 cg2d: Sum(rhs),rhsMax =  -2.20089892882906E-03  1.64119298972254E-01
 cg2d: Sum(rhs),rhsMax =  -2.20135797591872E-03  1.64123768358176E-01
 cg2d: Sum(rhs),rhsMax =  -2.20181673438715E-03  1.64128230849399E-01
 cg2d: Sum(rhs),rhsMax =  -2.20227520257018E-03  1.64132686458440E-01
 cg2d: Sum(rhs),rhsMax =  -2.20273337924361E-03  1.64137135197831E-01
 cg2d: Sum(rhs),rhsMax =  -2.20319126308710E-03  1.64141577080097E-01
 cg2d: Sum(rhs),rhsMax =  -2.20364885280972E-03  1.64146012117767E-01
 cg2d: Sum(rhs),rhsMax =  -2.20410614646805E-03  1.64150440323375E-01
 cg2d: Sum(rhs),rhsMax =  -2.20456314306612E-03  1.64154861709455E-01
 cg2d: Sum(rhs),rhsMax =  -2.20501984114570E-03  1.64159276288542E-01
 cg2d: Sum(rhs),rhsMax =  -2.20547623950500E-03  1.64163684073179E-01
 cg2d: Sum(rhs),rhsMax =  -2.20593233632860E-03  1.64168085075903E-01
 cg2d: Sum(rhs),rhsMax =  -2.20638813091840E-03  1.64172479309261E-01
 cg2d: Sum(rhs),rhsMax =  -2.20684362185103E-03  1.64176866785798E-01
 cg2d: Sum(rhs),rhsMax =  -2.20729880764477E-03  1.64181247518058E-01
 cg2d: Sum(rhs),rhsMax =  -2.20775368685817E-03  1.64185621518592E-01
 cg2d: Sum(rhs),rhsMax =  -2.20820825834023E-03  1.64189988799953E-01
 cg2d: Sum(rhs),rhsMax =  -2.20866252121750E-03  1.64194349374694E-01
(PID.TID 0000.0001)      cg2d_init_res =   1.20947869177184E-03
(PID.TID 0000.0001)      cg2d_iters(min,last) =      -1      76
(PID.TID 0000.0001)      cg2d_last_res =   9.15693096662112E-08
(PID.TID 0000.0001) // =======================================================
(PID.TID 0000.0001) // Begin MONITOR dynamic field statistics
(PID.TID 0000.0001) // =======================================================
(PID.TID 0000.0001) %MON time_tsnumber                =                  7272
(PID.TID 0000.0001) %MON time_secondsf                =   8.7264000000000E+06
(PID.TID 0000.0001) %MON dynstat_eta_max              =   1.7914903627017E-01
(PID.TID 0000.0001) %MON dynstat_eta_min              =  -6.8886208904372E-02
(PID.TID 0000.0001) %MON dynstat_eta_mean             =   1.8127409729602E-06
(PID.TID 0000.0001) %MON dynstat_eta_sd               =   7.4397265097701E-02
(PID.TID 0000.0001) %MON dynstat_eta_del2             =   2.3672032332796E-05
(PID.TID 0000.0001) %MON dynstat_uvel_max             =   1.1755664794220E-01
(PID.TID 0000.0001) %MON dynstat_uvel_min             =  -6.6897078982304E-02
(PID.TID 0000.0001) %MON dynstat_uvel_mean            =   6.1548396970102E-08
(PID.TID 0000.0001) %MON dynstat_uvel_sd              =   3.1992089703606E-02
(PID.TID 0000.0001) %MON dynstat_uvel_del2            =   5.9492809614595E-05
(PID.TID 0000.0001) %MON dynstat_vvel_max             =   8.0881047170789E-02
(PID.TID 0000.0001) %MON dynstat_vvel_min             =  -7.5960513961727E-02
(PID.TID 0000.0001) %MON dynstat_vvel_mean            =   1.6508219468461E-07
(PID.TID 0000.0001) %MON dynstat_vvel_sd              =   2.8130767051920E-02
(PID.TID 0000.0001) %MON dynstat_vvel_del2            =   4.2897333508347E-05
(PID.TID 0000.0001) %MON dynstat_wvel_max             =   1.8916277518438E-08
(PID.TID 0000.0001) %MON dynstat_wvel_min             =  -1.2896863173228E-08
(PID.TID 0000.0001) %MON dynstat_wvel_mean            =   2.8354257766397E-21
(PID.TID 0000.0001) %MON dynstat_wvel_sd              =   7.0014418717499E-09
(PID.TID 0000.0001) %MON dynstat_wvel_del2            =   3.3891050890421E-12
(PID.TID 0000.0001) %MON dynstat_theta_max            =   2.0000000000000E+01
(PID.TID 0000.0001) %MON dynstat_theta_min            =   2.0000000000000E+01
(PID.TID 0000.0001) %MON dynstat_theta_mean           =   2.0000000000000E+01
(PID.TID 0000.0001) %MON dynstat_theta_sd             =   3.8014036363165E-13
(PID.TID 0000.0001) %MON dynstat_theta_del2           =   0.0000000000000E+00
(PID.TID 0000.0001) %MON dynstat_salt_max             =   3.0000000000000E+01
(PID.TID 0000.0001) %MON dynstat_salt_min             =   3.0000000000000E+01
(PID.TID 0000.0001) %MON dynstat_salt_mean            =   2.9999999999999E+01
(PID.TID 0000.0001) %MON dynstat_salt_sd              =   5.5777604757167E-13
(PID.TID 0000.0001) %MON dynstat_salt_del2            =   0.0000000000000E+00
(PID.TID 0000.0001) %MON trAdv_CFL_u_max              =   7.0512395303176E-03
(PID.TID 0000.0001) %MON trAdv_CFL_v_max              =   4.8534493434169E-03
(PID.TID 0000.0001) %MON trAdv_CFL_w_max              =   4.9589042962138E-09
(PID.TID 0000.0001) %MON advcfl_uvel_max              =   7.0533988765322E-03
(PID.TID 0000.0001) %MON advcfl_vvel_max              =   4.8528628302473E-03
(PID.TID 0000.0001) %MON advcfl_wvel_max              =   9.0798132088501E-09
(PID.TID 0000.0001) %MON advcfl_W_hf_max              =   0.0000000000000E+00
(PID.TID 0000.0001) %MON pe_b_mean                    =   5.6746258932792E-06
(PID.TID 0000.0001) %MON ke_max                       =   6.9124920465579E-03
(PID.TID 0000.0001) %MON ke_mean                      =   8.9073078776945E-04
(PID.TID 0000.0001) %MON ke_vol                       =   6.8893493896486E+15
(PID.TID 0000.0001) %MON vort_r_min                   =  -1.1355686485953E-06
(PID.TID 0000.0001) %MON vort_r_max                   =   2.6100056978118E-06
(PID.TID 0000.0001) %MON vort_a_mean                  =   1.0600000000000E-04
(PID.TID 0000.0001) %MON vort_a_sd                    =   3.5471725670394E-06
(PID.TID 0000.0001) %MON vort_p_mean                  =   1.1652272308690E-04
(PID.TID 0000.0001) %MON vort_p_sd                    =   4.1778306369866E-05
(PID.TID 0000.0001) %MON surfExpan_theta_mean         =   5.6712200367946E-20
(PID.TID 0000.0001) %MON surfExpan_salt_mean          =   8.5068381968275E-20
(PID.TID 0000.0001) // =======================================================
(PID.TID 0000.0001) // End MONITOR dynamic field statistics
(PID.TID 0000.0001) // =======================================================
 cg2d: Sum(rhs),rhsMax =  -2.20911647394941E-03  1.64198703255369E-01
 cg2d: Sum(rhs),rhsMax =  -2.20957011550133E-03  1.64203050454537E-01
 cg2d: Sum(rhs),rhsMax =  -2.21002344445676E-03  1.64207390984756E-01
 cg2d: Sum(rhs),rhsMax =  -2.21047645996205E-03  1.64211724858587E-01
 cg2d: Sum(rhs),rhsMax =  -2.21092916049998E-03  1.64216052088593E-01
 cg2d: Sum(rhs),rhsMax =  -2.21138154504599E-03  1.64220372687341E-01
 cg2d: Sum(rhs),rhsMax =  -2.21183361270146E-03  1.64224686667394E-01
 cg2d: Sum(rhs),rhsMax =  -2.21228536190268E-03  1.64228994041319E-01
 cg2d: Sum(rhs),rhsMax =  -2.21273679158081E-03  1.64233294821692E-01
 cg2d: Sum(rhs),rhsMax =  -2.21318790110453E-03  1.64237589021078E-01
 cg2d: Sum(rhs),rhsMax =  -2.21363868883000E-03  1.64241876652053E-01
 cg2d: Sum(rhs),rhsMax =  -2.21408915406237E-03  1.64246157727192E-01
 cg2d: Sum(rhs),rhsMax =  -2.21453929555924E-03  1.64250432259069E-01
 cg2d: Sum(rhs),rhsMax =  -2.21498911247651E-03  1.64254700260264E-01
 cg2d: Sum(rhs),rhsMax =  -2.21543860353881E-03  1.64258961743355E-01
 cg2d: Sum(rhs),rhsMax =  -2.21588776780038E-03  1.64263216720923E-01
 cg2d: Sum(rhs),rhsMax =  -2.21633660434062E-03  1.64267465205550E-01
 cg2d: Sum(rhs),rhsMax =  -2.21678511219195E-03  1.64271707209819E-01
 cg2d: Sum(rhs),rhsMax =  -2.21723329048725E-03  1.64275942746317E-01
 cg2d: Sum(rhs),rhsMax =  -2.21768113778529E-03  1.64280171827628E-01
 cg2d: Sum(rhs),rhsMax =  -2.21812865383823E-03  1.64284394466338E-01
 cg2d: Sum(rhs),rhsMax =  -2.21857583741849E-03  1.64288610675040E-01
 cg2d: Sum(rhs),rhsMax =  -2.21902268740338E-03  1.64292820466322E-01
 cg2d: Sum(rhs),rhsMax =  -2.21946920297500E-03  1.64297023852775E-01
 cg2d: Sum(rhs),rhsMax =  -2.21991538337942E-03  1.64301220846992E-01
 cg2d: Sum(rhs),rhsMax =  -2.22036122765380E-03  1.64305411461565E-01
 cg2d: Sum(rhs),rhsMax =  -2.22080673504279E-03  1.64309595709091E-01
 cg2d: Sum(rhs),rhsMax =  -2.22125190488500E-03  1.64313773602165E-01
 cg2d: Sum(rhs),rhsMax =  -2.22169673618877E-03  1.64317945153384E-01
 cg2d: Sum(rhs),rhsMax =  -2.22214122810220E-03  1.64322110375344E-01
 cg2d: Sum(rhs),rhsMax =  -2.22258537966831E-03  1.64326269280645E-01
 cg2d: Sum(rhs),rhsMax =  -2.22302919043099E-03  1.64330421881888E-01
 cg2d: Sum(rhs),rhsMax =  -2.22347265921796E-03  1.64334568191675E-01
 cg2d: Sum(rhs),rhsMax =  -2.22391578558219E-03  1.64338708222604E-01
 cg2d: Sum(rhs),rhsMax =  -2.22435856877870E-03  1.64342841987277E-01
 cg2d: Sum(rhs),rhsMax =  -2.22480100788311E-03  1.64346969498301E-01
 cg2d: Sum(rhs),rhsMax =  -2.22524310217472E-03  1.64351090768279E-01
 cg2d: Sum(rhs),rhsMax =  -2.22568485107257E-03  1.64355205809815E-01
 cg2d: Sum(rhs),rhsMax =  -2.22612625417505E-03  1.64359314635516E-01
 cg2d: Sum(rhs),rhsMax =  -2.22656731009457E-03  1.64363417257987E-01
 cg2d: Sum(rhs),rhsMax =  -2.22700801878134E-03  1.64367513689834E-01
 cg2d: Sum(rhs),rhsMax =  -2.22744837949335E-03  1.64371603943668E-01
 cg2d: Sum(rhs),rhsMax =  -2.22788839151992E-03  1.64375688032096E-01
 cg2d: Sum(rhs),rhsMax =  -2.22832805411946E-03  1.64379765967725E-01
 cg2d: Sum(rhs),rhsMax =  -2.22876736656677E-03  1.64383837763167E-01
 cg2d: Sum(rhs),rhsMax =  -2.22920632877650E-03  1.64387903431030E-01
 cg2d: Sum(rhs),rhsMax =  -2.22964493974745E-03  1.64391962983928E-01
 cg2d: Sum(rhs),rhsMax =  -2.23008319923035E-03  1.64396016434466E-01
 cg2d: Sum(rhs),rhsMax =  -2.23052110664494E-03  1.64400063795261E-01
 cg2d: Sum(rhs),rhsMax =  -2.23095866104291E-03  1.64404105078922E-01
 cg2d: Sum(rhs),rhsMax =  -2.23139586214583E-03  1.64408140298061E-01
 cg2d: Sum(rhs),rhsMax =  -2.23183270947774E-03  1.64412169465292E-01
 cg2d: Sum(rhs),rhsMax =  -2.23226920248943E-03  1.64416192593225E-01
 cg2d: Sum(rhs),rhsMax =  -2.23270534079411E-03  1.64420209694477E-01
 cg2d: Sum(rhs),rhsMax =  -2.23314112382636E-03  1.64424220781660E-01
 cg2d: Sum(rhs),rhsMax =  -2.23357655101494E-03  1.64428225867383E-01
 cg2d: Sum(rhs),rhsMax =  -2.23401162227070E-03  1.64432224964266E-01
 cg2d: Sum(rhs),rhsMax =  -2.23444633678549E-03  1.64436218084920E-01
 cg2d: Sum(rhs),rhsMax =  -2.23488069414210E-03  1.64440205241959E-01
 cg2d: Sum(rhs),rhsMax =  -2.23531469435135E-03  1.64444186447997E-01
 cg2d: Sum(rhs),rhsMax =  -2.23574833643820E-03  1.64448161715648E-01
 cg2d: Sum(rhs),rhsMax =  -2.23618162042246E-03  1.64452131057528E-01
 cg2d: Sum(rhs),rhsMax =  -2.23661454571523E-03  1.64456094486246E-01
 cg2d: Sum(rhs),rhsMax =  -2.23704711223784E-03  1.64460052014423E-01
 cg2d: Sum(rhs),rhsMax =  -2.23747931947024E-03  1.64464003654667E-01
 cg2d: Sum(rhs),rhsMax =  -2.23791116675033E-03  1.64467949419594E-01
 cg2d: Sum(rhs),rhsMax =  -2.23834265448494E-03  1.64471889321820E-01
 cg2d: Sum(rhs),rhsMax =  -2.23877378188212E-03  1.64475823373957E-01
 cg2d: Sum(rhs),rhsMax =  -2.23920454889260E-03  1.64479751588617E-01
 cg2d: Sum(rhs),rhsMax =  -2.23963495476504E-03  1.64483673978417E-01
 cg2d: Sum(rhs),rhsMax =  -2.24006499976005E-03  1.64487590555964E-01
 cg2d: Sum(rhs),rhsMax =  -2.24049468324609E-03  1.64491501333874E-01
(PID.TID 0000.0001)      cg2d_init_res =   1.19193348579411E-03
(PID.TID 0000.0001)      cg2d_iters(min,last) =      -1      76
(PID.TID 0000.0001)      cg2d_last_res =   9.06674577162677E-08
(PID.TID 0000.0001) // =======================================================
(PID.TID 0000.0001) // Begin MONITOR dynamic field statistics
(PID.TID 0000.0001) // =======================================================
(PID.TID 0000.0001) %MON time_tsnumber                =                  7344
(PID.TID 0000.0001) %MON time_secondsf                =   8.8128000000000E+06
(PID.TID 0000.0001) %MON dynstat_eta_max              =   1.8059011659249E-01
(PID.TID 0000.0001) %MON dynstat_eta_min              =  -6.9279625349950E-02
(PID.TID 0000.0001) %MON dynstat_eta_mean             =   1.8421641108557E-06
(PID.TID 0000.0001) %MON dynstat_eta_sd               =   7.4925616012194E-02
(PID.TID 0000.0001) %MON dynstat_eta_del2             =   2.3774718578183E-05
(PID.TID 0000.0001) %MON dynstat_uvel_max             =   1.1813656236236E-01
(PID.TID 0000.0001) %MON dynstat_uvel_min             =  -6.7617169268627E-02
(PID.TID 0000.0001) %MON dynstat_uvel_mean            =   6.3789454314720E-08
(PID.TID 0000.0001) %MON dynstat_uvel_sd              =   3.2197543947462E-02
(PID.TID 0000.0001) %MON dynstat_uvel_del2            =   5.9823423117033E-05
(PID.TID 0000.0001) %MON dynstat_vvel_max             =   8.0171175390197E-02
(PID.TID 0000.0001) %MON dynstat_vvel_min             =  -7.6488997872049E-02
(PID.TID 0000.0001) %MON dynstat_vvel_mean            =   1.5871044300736E-07
(PID.TID 0000.0001) %MON dynstat_vvel_sd              =   2.8302544898463E-02
(PID.TID 0000.0001) %MON dynstat_vvel_del2            =   4.2633209210909E-05
(PID.TID 0000.0001) %MON dynstat_wvel_max             =   1.8818592574244E-08
(PID.TID 0000.0001) %MON dynstat_wvel_min             =  -1.2725490522571E-08
(PID.TID 0000.0001) %MON dynstat_wvel_mean            =   9.6971426602168E-21
(PID.TID 0000.0001) %MON dynstat_wvel_sd              =   6.9873236468816E-09
(PID.TID 0000.0001) %MON dynstat_wvel_del2            =   3.3664518214368E-12
(PID.TID 0000.0001) %MON dynstat_theta_max            =   2.0000000000000E+01
(PID.TID 0000.0001) %MON dynstat_theta_min            =   2.0000000000000E+01
(PID.TID 0000.0001) %MON dynstat_theta_mean           =   2.0000000000000E+01
(PID.TID 0000.0001) %MON dynstat_theta_sd             =   3.8014036363165E-13
(PID.TID 0000.0001) %MON dynstat_theta_del2           =   0.0000000000000E+00
(PID.TID 0000.0001) %MON dynstat_salt_max             =   3.0000000000000E+01
(PID.TID 0000.0001) %MON dynstat_salt_min             =   3.0000000000000E+01
(PID.TID 0000.0001) %MON dynstat_salt_mean            =   2.9999999999999E+01
(PID.TID 0000.0001) %MON dynstat_salt_sd              =   5.5777604757167E-13
(PID.TID 0000.0001) %MON dynstat_salt_del2            =   0.0000000000000E+00
(PID.TID 0000.0001) %MON trAdv_CFL_u_max              =   7.0860608136368E-03
(PID.TID 0000.0001) %MON trAdv_CFL_v_max              =   4.8108656390572E-03
(PID.TID 0000.0001) %MON trAdv_CFL_w_max              =   4.9333035186823E-09
(PID.TID 0000.0001) %MON advcfl_uvel_max              =   7.0881937417418E-03
(PID.TID 0000.0001) %MON advcfl_vvel_max              =   4.8102705234118E-03
(PID.TID 0000.0001) %MON advcfl_wvel_max              =   9.0329244356370E-09
(PID.TID 0000.0001) %MON advcfl_W_hf_max              =   0.0000000000000E+00
(PID.TID 0000.0001) %MON pe_b_mean                    =   5.7555116622006E-06
(PID.TID 0000.0001) %MON ke_max                       =   6.9777929216109E-03
(PID.TID 0000.0001) %MON ke_mean                      =   9.0196141610102E-04
(PID.TID 0000.0001) %MON ke_vol                       =   6.8893493896486E+15
(PID.TID 0000.0001) %MON vort_r_min                   =  -1.1420631023886E-06
(PID.TID 0000.0001) %MON vort_r_max                   =   2.6202886014495E-06
(PID.TID 0000.0001) %MON vort_a_mean                  =   1.0600000000000E-04
(PID.TID 0000.0001) %MON vort_a_sd                    =   3.5473504395091E-06
(PID.TID 0000.0001) %MON vort_p_mean                  =   1.1652272308690E-04
(PID.TID 0000.0001) %MON vort_p_sd                    =   4.1778595879991E-05
(PID.TID 0000.0001) %MON surfExpan_theta_mean         =   1.9401337326820E-19
(PID.TID 0000.0001) %MON surfExpan_salt_mean          =   2.9101050951712E-19
(PID.TID 0000.0001) // =======================================================
(PID.TID 0000.0001) // End MONITOR dynamic field statistics
(PID.TID 0000.0001) // =======================================================
 cg2d: Sum(rhs),rhsMax =  -2.24092400526312E-03  1.64495406324763E-01
 cg2d: Sum(rhs),rhsMax =  -2.24135296529780E-03  1.64499305541237E-01
 cg2d: Sum(rhs),rhsMax =  -2.24178156346055E-03  1.64503198995909E-01
 cg2d: Sum(rhs),rhsMax =  -2.24220979934384E-03  1.64507086701393E-01
 cg2d: Sum(rhs),rhsMax =  -2.24263767282605E-03  1.64510968670296E-01
 cg2d: Sum(rhs),rhsMax =  -2.24306518366693E-03  1.64514844915230E-01
 cg2d: Sum(rhs),rhsMax =  -2.24349233148695E-03  1.64518715448809E-01
 cg2d: Sum(rhs),rhsMax =  -2.24391911653936E-03  1.64522580283636E-01
 cg2d: Sum(rhs),rhsMax =  -2.24434553827889E-03  1.64526439432322E-01
 cg2d: Sum(rhs),rhsMax =  -2.24477159691554E-03  1.64530292907474E-01
 cg2d: Sum(rhs),rhsMax =  -2.24519729220532E-03  1.64534140721701E-01
 cg2d: Sum(rhs),rhsMax =  -2.24562262418090E-03  1.64537982887611E-01
 cg2d: Sum(rhs),rhsMax =  -2.24604759248456E-03  1.64541819417807E-01
 cg2d: Sum(rhs),rhsMax =  -2.24647219732973E-03  1.64545650324897E-01
 cg2d: Sum(rhs),rhsMax =  -2.24689643837972E-03  1.64549475621484E-01
 cg2d: Sum(rhs),rhsMax =  -2.24732031548944E-03  1.64553295320173E-01
 cg2d: Sum(rhs),rhsMax =  -2.24774382888231E-03  1.64557109433566E-01
 cg2d: Sum(rhs),rhsMax =  -2.24816697829647E-03  1.64560917974267E-01
 cg2d: Sum(rhs),rhsMax =  -2.24858976395074E-03  1.64564720954877E-01
 cg2d: Sum(rhs),rhsMax =  -2.24901218559941E-03  1.64568518387996E-01
 cg2d: Sum(rhs),rhsMax =  -2.24943424339951E-03  1.64572310286222E-01
 cg2d: Sum(rhs),rhsMax =  -2.24985593741520E-03  1.64576096662156E-01
 cg2d: Sum(rhs),rhsMax =  -2.25027726711599E-03  1.64579877528395E-01
 cg2d: Sum(rhs),rhsMax =  -2.25069823329382E-03  1.64583652897533E-01
 cg2d: Sum(rhs),rhsMax =  -2.25111883562972E-03  1.64587422782171E-01
 cg2d: Sum(rhs),rhsMax =  -2.25153907421595E-03  1.64591187194900E-01
 cg2d: Sum(rhs),rhsMax =  -2.25195894898751E-03  1.64594946148313E-01
 cg2d: Sum(rhs),rhsMax =  -2.25237846016549E-03  1.64598699655004E-01
 cg2d: Sum(rhs),rhsMax =  -2.25279760797501E-03  1.64602447727561E-01
 cg2d: Sum(rhs),rhsMax =  -2.25321639210979E-03  1.64606190378578E-01
 cg2d: Sum(rhs),rhsMax =  -2.25363481310989E-03  1.64609927620639E-01
 cg2d: Sum(rhs),rhsMax =  -2.25405287111613E-03  1.64613659466337E-01
 cg2d: Sum(rhs),rhsMax =  -2.25447056580202E-03  1.64617385928253E-01
 cg2d: Sum(rhs),rhsMax =  -2.25488789796182E-03  1.64621107018973E-01
 cg2d: Sum(rhs),rhsMax =  -2.25530486734670E-03  1.64624822751081E-01
 cg2d: Sum(rhs),rhsMax =  -2.25572147363737E-03  1.64628533137159E-01
 cg2d: Sum(rhs),rhsMax =  -2.25613771783155E-03  1.64632238189789E-01
 cg2d: Sum(rhs),rhsMax =  -2.25655359983735E-03  1.64635937921548E-01
 cg2d: Sum(rhs),rhsMax =  -2.25696911981424E-03  1.64639632345015E-01
 cg2d: Sum(rhs),rhsMax =  -2.25738427785036E-03  1.64643321472762E-01
 cg2d: Sum(rhs),rhsMax =  -2.25779907451842E-03  1.64647005317370E-01
 cg2d: Sum(rhs),rhsMax =  -2.25821351004358E-03  1.64650683891406E-01
 cg2d: Sum(rhs),rhsMax =  -2.25862758403802E-03  1.64654357207446E-01
 cg2d: Sum(rhs),rhsMax =  -2.25904129767568E-03  1.64658025278059E-01
 cg2d: Sum(rhs),rhsMax =  -2.25945465032863E-03  1.64661688115812E-01
 cg2d: Sum(rhs),rhsMax =  -2.25986764292986E-03  1.64665345733271E-01
 cg2d: Sum(rhs),rhsMax =  -2.26028027552692E-03  1.64668998143001E-01
 cg2d: Sum(rhs),rhsMax =  -2.26069254826992E-03  1.64672645357566E-01
 cg2d: Sum(rhs),rhsMax =  -2.26110446178544E-03  1.64676287389528E-01
 cg2d: Sum(rhs),rhsMax =  -2.26151601586777E-03  1.64679924251443E-01
 cg2d: Sum(rhs),rhsMax =  -2.26192721176313E-03  1.64683555955871E-01
 cg2d: Sum(rhs),rhsMax =  -2.26233804870106E-03  1.64687182515370E-01
 cg2d: Sum(rhs),rhsMax =  -2.26274852758573E-03  1.64690803942489E-01
 cg2d: Sum(rhs),rhsMax =  -2.26315864893267E-03  1.64694420249781E-01
 cg2d: Sum(rhs),rhsMax =  -2.26356841306293E-03  1.64698031449799E-01
 cg2d: Sum(rhs),rhsMax =  -2.26397781996146E-03  1.64701637555087E-01
 cg2d: Sum(rhs),rhsMax =  -2.26438687056980E-03  1.64705238578194E-01
 cg2d: Sum(rhs),rhsMax =  -2.26479556502707E-03  1.64708834531662E-01
 cg2d: Sum(rhs),rhsMax =  -2.26520390370098E-03  1.64712425428032E-01
 cg2d: Sum(rhs),rhsMax =  -2.26561188700023E-03  1.64716011279847E-01
 cg2d: Sum(rhs),rhsMax =  -2.26601951562344E-03  1.64719592099640E-01
 cg2d: Sum(rhs),rhsMax =  -2.26642678938447E-03  1.64723167899952E-01
 cg2d: Sum(rhs),rhsMax =  -2.26683370918545E-03  1.64726738693312E-01
 cg2d: Sum(rhs),rhsMax =  -2.26724027585466E-03  1.64730304492250E-01
 cg2d: Sum(rhs),rhsMax =  -2.26764648921129E-03  1.64733865309299E-01
 cg2d: Sum(rhs),rhsMax =  -2.26805234992211E-03  1.64737421156982E-01
 cg2d: Sum(rhs),rhsMax =  -2.26845785881267E-03  1.64740972047823E-01
 cg2d: Sum(rhs),rhsMax =  -2.26886301576720E-03  1.64744517994346E-01
 cg2d: Sum(rhs),rhsMax =  -2.26926782194436E-03  1.64748059009070E-01
 cg2d: Sum(rhs),rhsMax =  -2.26967227710990E-03  1.64751595104509E-01
 cg2d: Sum(rhs),rhsMax =  -2.27007638237525E-03  1.64755126293181E-01
 cg2d: Sum(rhs),rhsMax =  -2.27048013816781E-03  1.64758652587597E-01
(PID.TID 0000.0001)      cg2d_init_res =   1.17498299352595E-03
(PID.TID 0000.0001)      cg2d_iters(min,last) =      -1      76
(PID.TID 0000.0001)      cg2d_last_res =   9.00534006687623E-08
(PID.TID 0000.0001) // =======================================================
(PID.TID 0000.0001) // Begin MONITOR dynamic field statistics
(PID.TID 0000.0001) // =======================================================
(PID.TID 0000.0001) %MON time_tsnumber                =                  7416
(PID.TID 0000.0001) %MON time_secondsf                =   8.8992000000000E+06
(PID.TID 0000.0001) %MON dynstat_eta_max              =   1.8202975635827E-01
(PID.TID 0000.0001) %MON dynstat_eta_min              =  -6.9683709250244E-02
(PID.TID 0000.0001) %MON dynstat_eta_mean             =   1.8698199575263E-06
(PID.TID 0000.0001) %MON dynstat_eta_sd               =   7.5454317899935E-02
(PID.TID 0000.0001) %MON dynstat_eta_del2             =   2.3873944123423E-05
(PID.TID 0000.0001) %MON dynstat_uvel_max             =   1.1867545376295E-01
(PID.TID 0000.0001) %MON dynstat_uvel_min             =  -6.8311182394760E-02
(PID.TID 0000.0001) %MON dynstat_uvel_mean            =   6.4811368056738E-08
(PID.TID 0000.0001) %MON dynstat_uvel_sd              =   3.2400910819518E-02
(PID.TID 0000.0001) %MON dynstat_uvel_del2            =   6.0137453651023E-05
(PID.TID 0000.0001) %MON dynstat_vvel_max             =   7.9455960100906E-02
(PID.TID 0000.0001) %MON dynstat_vvel_min             =  -7.7042545867256E-02
(PID.TID 0000.0001) %MON dynstat_vvel_mean            =   1.5237135240145E-07
(PID.TID 0000.0001) %MON dynstat_vvel_sd              =   2.8477101010756E-02
(PID.TID 0000.0001) %MON dynstat_vvel_del2            =   4.2378475189463E-05
(PID.TID 0000.0001) %MON dynstat_wvel_max             =   1.8720659110259E-08
(PID.TID 0000.0001) %MON dynstat_wvel_min             =  -1.2505126231117E-08
(PID.TID 0000.0001) %MON dynstat_wvel_mean            =   1.1653853309528E-20
(PID.TID 0000.0001) %MON dynstat_wvel_sd              =   6.9743247593583E-09
(PID.TID 0000.0001) %MON dynstat_wvel_del2            =   3.3454005943669E-12
(PID.TID 0000.0001) %MON dynstat_theta_max            =   2.0000000000000E+01
(PID.TID 0000.0001) %MON dynstat_theta_min            =   2.0000000000000E+01
(PID.TID 0000.0001) %MON dynstat_theta_mean           =   2.0000000000000E+01
(PID.TID 0000.0001) %MON dynstat_theta_sd             =   3.8014036363165E-13
(PID.TID 0000.0001) %MON dynstat_theta_del2           =   0.0000000000000E+00
(PID.TID 0000.0001) %MON dynstat_salt_max             =   3.0000000000000E+01
(PID.TID 0000.0001) %MON dynstat_salt_min             =   3.0000000000000E+01
(PID.TID 0000.0001) %MON dynstat_salt_mean            =   2.9999999999999E+01
(PID.TID 0000.0001) %MON dynstat_salt_sd              =   5.5777604757167E-13
(PID.TID 0000.0001) %MON dynstat_salt_del2            =   0.0000000000000E+00
(PID.TID 0000.0001) %MON trAdv_CFL_u_max              =   7.1184204022568E-03
(PID.TID 0000.0001) %MON trAdv_CFL_v_max              =   4.7679531642984E-03
(PID.TID 0000.0001) %MON trAdv_CFL_w_max              =   4.9100936165709E-09
(PID.TID 0000.0001) %MON advcfl_uvel_max              =   7.1205272257770E-03
(PID.TID 0000.0001) %MON advcfl_vvel_max              =   4.7673576060544E-03
(PID.TID 0000.0001) %MON advcfl_wvel_max              =   8.9859163729241E-09
(PID.TID 0000.0001) %MON advcfl_W_hf_max              =   0.0000000000000E+00
(PID.TID 0000.0001) %MON pe_b_mean                    =   5.8370241305803E-06
(PID.TID 0000.0001) %MON ke_max                       =   7.0448302295273E-03
(PID.TID 0000.0001) %MON ke_mean                      =   9.1327371179415E-04
(PID.TID 0000.0001) %MON ke_vol                       =   6.8893493896486E+15
(PID.TID 0000.0001) %MON vort_r_min                   =  -1.1491809975901E-06
(PID.TID 0000.0001) %MON vort_r_max                   =   2.6296979848745E-06
(PID.TID 0000.0001) %MON vort_a_mean                  =   1.0600000000000E-04
(PID.TID 0000.0001) %MON vort_a_sd                    =   3.5475232702701E-06
(PID.TID 0000.0001) %MON vort_p_mean                  =   1.1652272308690E-04
(PID.TID 0000.0001) %MON vort_p_sd                    =   4.1778882531844E-05
(PID.TID 0000.0001) %MON surfExpan_theta_mean         =   2.3315401461351E-19
(PID.TID 0000.0001) %MON surfExpan_salt_mean          =   3.4972060309397E-19
(PID.TID 0000.0001) // =======================================================
(PID.TID 0000.0001) // End MONITOR dynamic field statistics
(PID.TID 0000.0001) // =======================================================
 cg2d: Sum(rhs),rhsMax =  -2.27088354499782E-03  1.64762174000265E-01
 cg2d: Sum(rhs),rhsMax =  -2.27128660317893E-03  1.64765690543694E-01
 cg2d: Sum(rhs),rhsMax =  -2.27168931403616E-03  1.64769202230388E-01
 cg2d: Sum(rhs),rhsMax =  -2.27209167738292E-03  1.64772709072847E-01
 cg2d: Sum(rhs),rhsMax =  -2.27249369422755E-03  1.64776211083573E-01
 cg2d: Sum(rhs),rhsMax =  -2.27289536488134E-03  1.64779708275061E-01
 cg2d: Sum(rhs),rhsMax =  -2.27329668994841E-03  1.64783200659806E-01
 cg2d: Sum(rhs),rhsMax =  -2.27369767016167E-03  1.64786688250298E-01
 cg2d: Sum(rhs),rhsMax =  -2.27409830615794E-03  1.64790171059027E-01
 cg2d: Sum(rhs),rhsMax =  -2.27449859862471E-03  1.64793649098475E-01
 cg2d: Sum(rhs),rhsMax =  -2.27489854784302E-03  1.64797122381131E-01
 cg2d: Sum(rhs),rhsMax =  -2.27529815522036E-03  1.64800590919471E-01
 cg2d: Sum(rhs),rhsMax =  -2.27569742079444E-03  1.64804054725972E-01
 cg2d: Sum(rhs),rhsMax =  -2.27609634532950E-03  1.64807513813111E-01
 cg2d: Sum(rhs),rhsMax =  -2.27649492952528E-03  1.64810968193359E-01
 cg2d: Sum(rhs),rhsMax =  -2.27689317375668E-03  1.64814417879184E-01
 cg2d: Sum(rhs),rhsMax =  -2.27729107967178E-03  1.64817862883049E-01
 cg2d: Sum(rhs),rhsMax =  -2.27768864723205E-03  1.64821303217421E-01
 cg2d: Sum(rhs),rhsMax =  -2.27808587718975E-03  1.64824738894756E-01
 cg2d: Sum(rhs),rhsMax =  -2.27848277033539E-03  1.64828169927515E-01
 cg2d: Sum(rhs),rhsMax =  -2.27887932749856E-03  1.64831596328146E-01
 cg2d: Sum(rhs),rhsMax =  -2.27927554914609E-03  1.64835018109102E-01
 cg2d: Sum(rhs),rhsMax =  -2.27967143610805E-03  1.64838435282832E-01
 cg2d: Sum(rhs),rhsMax =  -2.28006698972190E-03  1.64841847861777E-01
 cg2d: Sum(rhs),rhsMax =  -2.28046220997424E-03  1.64845255858380E-01
 cg2d: Sum(rhs),rhsMax =  -2.28085709817958E-03  1.64848659285077E-01
 cg2d: Sum(rhs),rhsMax =  -2.28125165489369E-03  1.64852058154302E-01
 cg2d: Sum(rhs),rhsMax =  -2.28164588066682E-03  1.64855452478489E-01
 cg2d: Sum(rhs),rhsMax =  -2.28203977647634E-03  1.64858842270063E-01
 cg2d: Sum(rhs),rhsMax =  -2.28243334341599E-03  1.64862227541449E-01
 cg2d: Sum(rhs),rhsMax =  -2.28282658174976E-03  1.64865608305067E-01
 cg2d: Sum(rhs),rhsMax =  -2.28321949250230E-03  1.64868984573336E-01
 cg2d: Sum(rhs),rhsMax =  -2.28361207692756E-03  1.64872356358671E-01
 cg2d: Sum(rhs),rhsMax =  -2.28400433564497E-03  1.64875723673482E-01
 cg2d: Sum(rhs),rhsMax =  -2.28439626919974E-03  1.64879086530177E-01
 cg2d: Sum(rhs),rhsMax =  -2.28478787880211E-03  1.64882444941155E-01
 cg2d: Sum(rhs),rhsMax =  -2.28517916532917E-03  1.64885798918823E-01
 cg2d: Sum(rhs),rhsMax =  -2.28557012900712E-03  1.64889148475571E-01
 cg2d: Sum(rhs),rhsMax =  -2.28596077163679E-03  1.64892493623800E-01
 cg2d: Sum(rhs),rhsMax =  -2.28635109343404E-03  1.64895834375892E-01
 cg2d: Sum(rhs),rhsMax =  -2.28674109563764E-03  1.64899170744235E-01
 cg2d: Sum(rhs),rhsMax =  -2.28713077892047E-03  1.64902502741210E-01
 cg2d: Sum(rhs),rhsMax =  -2.28752014439870E-03  1.64905830379200E-01
 cg2d: Sum(rhs),rhsMax =  -2.28790919254403E-03  1.64909153670575E-01
 cg2d: Sum(rhs),rhsMax =  -2.28829792503510E-03  1.64912472627708E-01
 cg2d: Sum(rhs),rhsMax =  -2.28868634201861E-03  1.64915787262963E-01
 cg2d: Sum(rhs),rhsMax =  -2.28907444508447E-03  1.64919097588706E-01
 cg2d: Sum(rhs),rhsMax =  -2.28946223465665E-03  1.64922403617294E-01
 cg2d: Sum(rhs),rhsMax =  -2.28984971219115E-03  1.64925705361085E-01
 cg2d: Sum(rhs),rhsMax =  -2.29023687830874E-03  1.64929002832428E-01
 cg2d: Sum(rhs),rhsMax =  -2.29062373417034E-03  1.64932296043671E-01
 cg2d: Sum(rhs),rhsMax =  -2.29101028066612E-03  1.64935585007160E-01
 cg2d: Sum(rhs),rhsMax =  -2.29139651875180E-03  1.64938869735230E-01
 cg2d: Sum(rhs),rhsMax =  -2.29178244943953E-03  1.64942150240220E-01
 cg2d: Sum(rhs),rhsMax =  -2.29216807357824E-03  1.64945426534462E-01
 cg2d: Sum(rhs),rhsMax =  -2.29255339237172E-03  1.64948698630278E-01
 cg2d: Sum(rhs),rhsMax =  -2.29293840677362E-03  1.64951966539999E-01
 cg2d: Sum(rhs),rhsMax =  -2.29332311796007E-03  1.64955230275936E-01
 cg2d: Sum(rhs),rhsMax =  -2.29370752655040E-03  1.64958489850410E-01
 cg2d: Sum(rhs),rhsMax =  -2.29409163412172E-03  1.64961745275729E-01
 cg2d: Sum(rhs),rhsMax =  -2.29447544157522E-03  1.64964996564198E-01
 cg2d: Sum(rhs),rhsMax =  -2.29485894962990E-03  1.64968243728122E-01
 cg2d: Sum(rhs),rhsMax =  -2.29524215942880E-03  1.64971486779800E-01
 cg2d: Sum(rhs),rhsMax =  -2.29562507236532E-03  1.64974725731521E-01
 cg2d: Sum(rhs),rhsMax =  -2.29600768926746E-03  1.64977960595575E-01
 cg2d: Sum(rhs),rhsMax =  -2.29639001107374E-03  1.64981191384252E-01
 cg2d: Sum(rhs),rhsMax =  -2.29677203912347E-03  1.64984418109827E-01
 cg2d: Sum(rhs),rhsMax =  -2.29715377430234E-03  1.64987640784576E-01
 cg2d: Sum(rhs),rhsMax =  -2.29753521824053E-03  1.64990859420775E-01
 cg2d: Sum(rhs),rhsMax =  -2.29791637127889E-03  1.64994074030686E-01
 cg2d: Sum(rhs),rhsMax =  -2.29829723500903E-03  1.64997284626577E-01
 cg2d: Sum(rhs),rhsMax =  -2.29867781030857E-03  1.65000491220701E-01
(PID.TID 0000.0001)      cg2d_init_res =   1.15866381203175E-03
(PID.TID 0000.0001)      cg2d_iters(min,last) =      -1      76
(PID.TID 0000.0001)      cg2d_last_res =   8.97165249635099E-08
(PID.TID 0000.0001) // =======================================================
(PID.TID 0000.0001) // Begin MONITOR dynamic field statistics
(PID.TID 0000.0001) // =======================================================
(PID.TID 0000.0001) %MON time_tsnumber                =                  7488
(PID.TID 0000.0001) %MON time_secondsf                =   8.9856000000000E+06
(PID.TID 0000.0001) %MON dynstat_eta_max              =   1.8346856101360E-01
(PID.TID 0000.0001) %MON dynstat_eta_min              =  -7.0098128097578E-02
(PID.TID 0000.0001) %MON dynstat_eta_mean             =   1.8957934855914E-06
(PID.TID 0000.0001) %MON dynstat_eta_sd               =   7.5983762118484E-02
(PID.TID 0000.0001) %MON dynstat_eta_del2             =   2.3969706269540E-05
(PID.TID 0000.0001) %MON dynstat_uvel_max             =   1.1917461015438E-01
(PID.TID 0000.0001) %MON dynstat_uvel_min             =  -6.8974870764605E-02
(PID.TID 0000.0001) %MON dynstat_uvel_mean            =   6.4510423054555E-08
(PID.TID 0000.0001) %MON dynstat_uvel_sd              =   3.2602098483465E-02
(PID.TID 0000.0001) %MON dynstat_uvel_del2            =   6.0434933258987E-05
(PID.TID 0000.0001) %MON dynstat_vvel_max             =   7.8745074720498E-02
(PID.TID 0000.0001) %MON dynstat_vvel_min             =  -7.7609681112808E-02
(PID.TID 0000.0001) %MON dynstat_vvel_mean            =   1.4619827527365E-07
(PID.TID 0000.0001) %MON dynstat_vvel_sd              =   2.8654676239905E-02
(PID.TID 0000.0001) %MON dynstat_vvel_del2            =   4.2133915737767E-05
(PID.TID 0000.0001) %MON dynstat_wvel_max             =   1.8624897354021E-08
(PID.TID 0000.0001) %MON dynstat_wvel_min             =  -1.2367264823988E-08
(PID.TID 0000.0001) %MON dynstat_wvel_mean            =   7.8091463567236E-22
(PID.TID 0000.0001) %MON dynstat_wvel_sd              =   6.9621618856842E-09
(PID.TID 0000.0001) %MON dynstat_wvel_del2            =   3.3258284121655E-12
(PID.TID 0000.0001) %MON dynstat_theta_max            =   2.0000000000000E+01
(PID.TID 0000.0001) %MON dynstat_theta_min            =   2.0000000000000E+01
(PID.TID 0000.0001) %MON dynstat_theta_mean           =   2.0000000000000E+01
(PID.TID 0000.0001) %MON dynstat_theta_sd             =   3.8014036363165E-13
(PID.TID 0000.0001) %MON dynstat_theta_del2           =   0.0000000000000E+00
(PID.TID 0000.0001) %MON dynstat_salt_max             =   3.0000000000000E+01
(PID.TID 0000.0001) %MON dynstat_salt_min             =   3.0000000000000E+01
(PID.TID 0000.0001) %MON dynstat_salt_mean            =   2.9999999999999E+01
(PID.TID 0000.0001) %MON dynstat_salt_sd              =   5.5777604757167E-13
(PID.TID 0000.0001) %MON dynstat_salt_del2            =   0.0000000000000E+00
(PID.TID 0000.0001) %MON trAdv_CFL_u_max              =   7.1483952044383E-03
(PID.TID 0000.0001) %MON trAdv_CFL_v_max              =   4.7252925378742E-03
(PID.TID 0000.0001) %MON trAdv_CFL_w_max              =   4.8896310633404E-09
(PID.TID 0000.0001) %MON advcfl_uvel_max              =   7.1504766092627E-03
(PID.TID 0000.0001) %MON advcfl_vvel_max              =   4.7247044832299E-03
(PID.TID 0000.0001) %MON advcfl_wvel_max              =   8.9399507299298E-09
(PID.TID 0000.0001) %MON advcfl_W_hf_max              =   0.0000000000000E+00
(PID.TID 0000.0001) %MON pe_b_mean                    =   5.9192254141567E-06
(PID.TID 0000.0001) %MON ke_max                       =   7.1073980865355E-03
(PID.TID 0000.0001) %MON ke_mean                      =   9.2467168846531E-04
(PID.TID 0000.0001) %MON ke_vol                       =   6.8893493896486E+15
(PID.TID 0000.0001) %MON vort_r_min                   =  -1.1558064359688E-06
(PID.TID 0000.0001) %MON vort_r_max                   =   2.6382876114448E-06
(PID.TID 0000.0001) %MON vort_a_mean                  =   1.0600000000000E-04
(PID.TID 0000.0001) %MON vort_a_sd                    =   3.5476911870031E-06
(PID.TID 0000.0001) %MON vort_p_mean                  =   1.1652272308690E-04
(PID.TID 0000.0001) %MON vort_p_sd                    =   4.1779165854199E-05
(PID.TID 0000.0001) %MON surfExpan_theta_mean         =   1.5644572057580E-20
(PID.TID 0000.0001) %MON surfExpan_salt_mean          =   2.3459910557398E-20
(PID.TID 0000.0001) // =======================================================
(PID.TID 0000.0001) // End MONITOR dynamic field statistics
(PID.TID 0000.0001) // =======================================================
 cg2d: Sum(rhs),rhsMax =  -2.29905809820377E-03  1.65003693825314E-01
 cg2d: Sum(rhs),rhsMax =  -2.29943810020939E-03  1.65006892452661E-01
 cg2d: Sum(rhs),rhsMax =  -2.29981781717712E-03  1.65010087114992E-01
 cg2d: Sum(rhs),rhsMax =  -2.30019725034953E-03  1.65013277824544E-01
 cg2d: Sum(rhs),rhsMax =  -2.30057640087433E-03  1.65016464593552E-01
 cg2d: Sum(rhs),rhsMax =  -2.30095527012309E-03  1.65019647434245E-01
 cg2d: Sum(rhs),rhsMax =  -2.30133385887055E-03  1.65022826358849E-01
 cg2d: Sum(rhs),rhsMax =  -2.30171216814032E-03  1.65026001379584E-01
 cg2d: Sum(rhs),rhsMax =  -2.30209020018016E-03  1.65029172508669E-01
 cg2d: Sum(rhs),rhsMax =  -2.30246795474379E-03  1.65032339758311E-01
 cg2d: Sum(rhs),rhsMax =  -2.30284543393964E-03  1.65035503140719E-01
 cg2d: Sum(rhs),rhsMax =  -2.30322263900325E-03  1.65038662668091E-01
 cg2d: Sum(rhs),rhsMax =  -2.30359957044967E-03  1.65041818352628E-01
 cg2d: Sum(rhs),rhsMax =  -2.30397622978671E-03  1.65044970206518E-01
 cg2d: Sum(rhs),rhsMax =  -2.30435261863259E-03  1.65048118241949E-01
 cg2d: Sum(rhs),rhsMax =  -2.30472873771410E-03  1.65051262471101E-01
 cg2d: Sum(rhs),rhsMax =  -2.30510458838195E-03  1.65054402906153E-01
 cg2d: Sum(rhs),rhsMax =  -2.30548017171120E-03  1.65057539559273E-01
 cg2d: Sum(rhs),rhsMax =  -2.30585548956807E-03  1.65060672442631E-01
 cg2d: Sum(rhs),rhsMax =  -2.30623054264155E-03  1.65063801568385E-01
 cg2d: Sum(rhs),rhsMax =  -2.30660533217298E-03  1.65066926948694E-01
 cg2d: Sum(rhs),rhsMax =  -2.30697985980008E-03  1.65070048595706E-01
 cg2d: Sum(rhs),rhsMax =  -2.30735412651602E-03  1.65073166521571E-01
 cg2d: Sum(rhs),rhsMax =  -2.30772813352198E-03  1.65076280738426E-01
 cg2d: Sum(rhs),rhsMax =  -2.30810188183860E-03  1.65079391258408E-01
 cg2d: Sum(rhs),rhsMax =  -2.30847537338141E-03  1.65082498093644E-01
 cg2d: Sum(rhs),rhsMax =  -2.30884860884577E-03  1.65085601256265E-01
 cg2d: Sum(rhs),rhsMax =  -2.30922158994457E-03  1.65088700758386E-01
 cg2d: Sum(rhs),rhsMax =  -2.30959431783903E-03  1.65091796612123E-01
 cg2d: Sum(rhs),rhsMax =  -2.30996679424175E-03  1.65094888829582E-01
 cg2d: Sum(rhs),rhsMax =  -2.31033901949174E-03  1.65097977422869E-01
 cg2d: Sum(rhs),rhsMax =  -2.31071099561854E-03  1.65101062404081E-01
 cg2d: Sum(rhs),rhsMax =  -2.31108272400997E-03  1.65104143785312E-01
 cg2d: Sum(rhs),rhsMax =  -2.31145420531347E-03  1.65107221578647E-01
 cg2d: Sum(rhs),rhsMax =  -2.31182544151472E-03  1.65110295796169E-01
 cg2d: Sum(rhs),rhsMax =  -2.31219643378646E-03  1.65113366449951E-01
 cg2d: Sum(rhs),rhsMax =  -2.31256718331102E-03  1.65116433552068E-01
 cg2d: Sum(rhs),rhsMax =  -2.31293769145030E-03  1.65119497114582E-01
 cg2d: Sum(rhs),rhsMax =  -2.31330795951819E-03  1.65122557149553E-01
 cg2d: Sum(rhs),rhsMax =  -2.31367798909522E-03  1.65125613669034E-01
 cg2d: Sum(rhs),rhsMax =  -2.31404778140325E-03  1.65128666685074E-01
 cg2d: Sum(rhs),rhsMax =  -2.31441733765724E-03  1.65131716209713E-01
 cg2d: Sum(rhs),rhsMax =  -2.31478665942272E-03  1.65134762254990E-01
 cg2d: Sum(rhs),rhsMax =  -2.31515574795845E-03  1.65137804832933E-01
 cg2d: Sum(rhs),rhsMax =  -2.31552460506609E-03  1.65140843955571E-01
 cg2d: Sum(rhs),rhsMax =  -2.31589323145570E-03  1.65143879634921E-01
 cg2d: Sum(rhs),rhsMax =  -2.31626162907540E-03  1.65146911882994E-01
 cg2d: Sum(rhs),rhsMax =  -2.31662979876936E-03  1.65149940711801E-01
 cg2d: Sum(rhs),rhsMax =  -2.31699774268401E-03  1.65152966133341E-01
 cg2d: Sum(rhs),rhsMax =  -2.31736546161389E-03  1.65155988159613E-01
 cg2d: Sum(rhs),rhsMax =  -2.31773295690270E-03  1.65159006802603E-01
 cg2d: Sum(rhs),rhsMax =  -2.31810023057240E-03  1.65162022074298E-01
 cg2d: Sum(rhs),rhsMax =  -2.31846728372463E-03  1.65165033986671E-01
 cg2d: Sum(rhs),rhsMax =  -2.31883411741519E-03  1.65168042551698E-01
 cg2d: Sum(rhs),rhsMax =  -2.31920073359327E-03  1.65171047781345E-01
 cg2d: Sum(rhs),rhsMax =  -2.31956713377859E-03  1.65174049687570E-01
 cg2d: Sum(rhs),rhsMax =  -2.31993331890301E-03  1.65177048282324E-01
 cg2d: Sum(rhs),rhsMax =  -2.32029929084929E-03  1.65180043577562E-01
 cg2d: Sum(rhs),rhsMax =  -2.32066505067304E-03  1.65183035585216E-01
 cg2d: Sum(rhs),rhsMax =  -2.32103060041865E-03  1.65186024317228E-01
 cg2d: Sum(rhs),rhsMax =  -2.32139594073243E-03  1.65189009785524E-01
 cg2d: Sum(rhs),rhsMax =  -2.32176107379316E-03  1.65191992002027E-01
 cg2d: Sum(rhs),rhsMax =  -2.32212600090550E-03  1.65194970978654E-01
 cg2d: Sum(rhs),rhsMax =  -2.32249072317717E-03  1.65197946727314E-01
 cg2d: Sum(rhs),rhsMax =  -2.32285524265073E-03  1.65200919259912E-01
 cg2d: Sum(rhs),rhsMax =  -2.32321955996342E-03  1.65203888588346E-01
 cg2d: Sum(rhs),rhsMax =  -2.32358367746953E-03  1.65206854724503E-01
 cg2d: Sum(rhs),rhsMax =  -2.32394759629257E-03  1.65209817680274E-01
 cg2d: Sum(rhs),rhsMax =  -2.32431131773240E-03  1.65212777467533E-01
 cg2d: Sum(rhs),rhsMax =  -2.32467484402303E-03  1.65215734098155E-01
 cg2d: Sum(rhs),rhsMax =  -2.32503817609085E-03  1.65218687584000E-01
 cg2d: Sum(rhs),rhsMax =  -2.32540131511053E-03  1.65221637936932E-01
(PID.TID 0000.0001)      cg2d_init_res =   1.14298384973596E-03
(PID.TID 0000.0001)      cg2d_iters(min,last) =      -1      76
(PID.TID 0000.0001)      cg2d_last_res =   8.95912515650799E-08
(PID.TID 0000.0001) // =======================================================
(PID.TID 0000.0001) // Begin MONITOR dynamic field statistics
(PID.TID 0000.0001) // =======================================================
(PID.TID 0000.0001) %MON time_tsnumber                =                  7560
(PID.TID 0000.0001) %MON time_secondsf                =   9.0720000000000E+06
(PID.TID 0000.0001) %MON dynstat_eta_max              =   1.8490702752445E-01
(PID.TID 0000.0001) %MON dynstat_eta_min              =  -7.0522379260622E-02
(PID.TID 0000.0001) %MON dynstat_eta_mean             =   1.9203826650016E-06
(PID.TID 0000.0001) %MON dynstat_eta_sd               =   7.6514321159798E-02
(PID.TID 0000.0001) %MON dynstat_eta_del2             =   2.4062027038300E-05
(PID.TID 0000.0001) %MON dynstat_uvel_max             =   1.1963573451244E-01
(PID.TID 0000.0001) %MON dynstat_uvel_min             =  -6.9605058783282E-02
(PID.TID 0000.0001) %MON dynstat_uvel_mean            =   6.2827791003141E-08
(PID.TID 0000.0001) %MON dynstat_uvel_sd              =   3.2801070681937E-02
(PID.TID 0000.0001) %MON dynstat_uvel_del2            =   6.0715973765364E-05
(PID.TID 0000.0001) %MON dynstat_vvel_max             =   7.8047867608990E-02
(PID.TID 0000.0001) %MON dynstat_vvel_min             =  -7.8190394201045E-02
(PID.TID 0000.0001) %MON dynstat_vvel_mean            =   1.4032732475578E-07
(PID.TID 0000.0001) %MON dynstat_vvel_sd              =   2.8835429349536E-02
(PID.TID 0000.0001) %MON dynstat_vvel_del2            =   4.1900221837482E-05
(PID.TID 0000.0001) %MON dynstat_wvel_max             =   1.8533563732781E-08
(PID.TID 0000.0001) %MON dynstat_wvel_min             =  -1.2122980561107E-08
(PID.TID 0000.0001) %MON dynstat_wvel_mean            =   1.1064794054821E-20
(PID.TID 0000.0001) %MON dynstat_wvel_sd              =   6.9505704160872E-09
(PID.TID 0000.0001) %MON dynstat_wvel_del2            =   3.3075176213096E-12
(PID.TID 0000.0001) %MON dynstat_theta_max            =   2.0000000000000E+01
(PID.TID 0000.0001) %MON dynstat_theta_min            =   2.0000000000000E+01
(PID.TID 0000.0001) %MON dynstat_theta_mean           =   2.0000000000000E+01
(PID.TID 0000.0001) %MON dynstat_theta_sd             =   3.8014036363165E-13
(PID.TID 0000.0001) %MON dynstat_theta_del2           =   0.0000000000000E+00
(PID.TID 0000.0001) %MON dynstat_salt_max             =   3.0000000000000E+01
(PID.TID 0000.0001) %MON dynstat_salt_min             =   3.0000000000000E+01
(PID.TID 0000.0001) %MON dynstat_salt_mean            =   2.9999999999999E+01
(PID.TID 0000.0001) %MON dynstat_salt_sd              =   5.5777604757167E-13
(PID.TID 0000.0001) %MON dynstat_salt_del2            =   0.0000000000000E+00
(PID.TID 0000.0001) %MON trAdv_CFL_u_max              =   7.1760870382299E-03
(PID.TID 0000.0001) %MON trAdv_CFL_v_max              =   4.6840689173020E-03
(PID.TID 0000.0001) %MON trAdv_CFL_w_max              =   4.8705623221327E-09
(PID.TID 0000.0001) %MON advcfl_uvel_max              =   7.1781440707464E-03
(PID.TID 0000.0001) %MON advcfl_vvel_max              =   4.6914236520627E-03
(PID.TID 0000.0001) %MON advcfl_wvel_max              =   8.8961105917348E-09
(PID.TID 0000.0001) %MON advcfl_W_hf_max              =   0.0000000000000E+00
(PID.TID 0000.0001) %MON pe_b_mean                    =   6.0021763707964E-06
(PID.TID 0000.0001) %MON ke_max                       =   7.1656101235646E-03
(PID.TID 0000.0001) %MON ke_mean                      =   9.3615896020671E-04
(PID.TID 0000.0001) %MON ke_vol                       =   6.8893493896486E+15
(PID.TID 0000.0001) %MON vort_r_min                   =  -1.1618465551399E-06
(PID.TID 0000.0001) %MON vort_r_max                   =   2.6461172059613E-06
(PID.TID 0000.0001) %MON vort_a_mean                  =   1.0600000000000E-04
(PID.TID 0000.0001) %MON vort_a_sd                    =   3.5478543662360E-06
(PID.TID 0000.0001) %MON vort_p_mean                  =   1.1652272308690E-04
(PID.TID 0000.0001) %MON vort_p_sd                    =   4.1779445427062E-05
(PID.TID 0000.0001) %MON surfExpan_theta_mean         =   2.2127911355104E-19
(PID.TID 0000.0001) %MON surfExpan_salt_mean          =   3.3191456496853E-19
(PID.TID 0000.0001) // =======================================================
(PID.TID 0000.0001) // End MONITOR dynamic field statistics
(PID.TID 0000.0001) // =======================================================
 cg2d: Sum(rhs),rhsMax =  -2.32576426323067E-03  1.65224585168803E-01
 cg2d: Sum(rhs),rhsMax =  -2.32612702210852E-03  1.65227529291457E-01
 cg2d: Sum(rhs),rhsMax =  -2.32648959288311E-03  1.65230470316735E-01
 cg2d: Sum(rhs),rhsMax =  -2.32685197735093E-03  1.65233408256467E-01
 cg2d: Sum(rhs),rhsMax =  -2.32721417639341E-03  1.65236343122481E-01
 cg2d: Sum(rhs),rhsMax =  -2.32757619238215E-03  1.65239274926597E-01
 cg2d: Sum(rhs),rhsMax =  -2.32793802647590E-03  1.65242203680628E-01
 cg2d: Sum(rhs),rhsMax =  -2.32829968020529E-03  1.65245129396379E-01
 cg2d: Sum(rhs),rhsMax =  -2.32866115529762E-03  1.65248052085648E-01
 cg2d: Sum(rhs),rhsMax =  -2.32902245298881E-03  1.65250971760232E-01
 cg2d: Sum(rhs),rhsMax =  -2.32938357513522E-03  1.65253888431914E-01
 cg2d: Sum(rhs),rhsMax =  -2.32974452318811E-03  1.65256802112469E-01
 cg2d: Sum(rhs),rhsMax =  -2.33010529877363E-03  1.65259712813676E-01
 cg2d: Sum(rhs),rhsMax =  -2.33046590354846E-03  1.65262620547298E-01
 cg2d: Sum(rhs),rhsMax =  -2.33082633917159E-03  1.65265525325093E-01
 cg2d: Sum(rhs),rhsMax =  -2.33118660696096E-03  1.65268427158812E-01
 cg2d: Sum(rhs),rhsMax =  -2.33154670878541E-03  1.65271326060200E-01
 cg2d: Sum(rhs),rhsMax =  -2.33190664571636E-03  1.65274222040996E-01
 cg2d: Sum(rhs),rhsMax =  -2.33226642001158E-03  1.65277115112928E-01
 cg2d: Sum(rhs),rhsMax =  -2.33262603301962E-03  1.65280005287722E-01
 cg2d: Sum(rhs),rhsMax =  -2.33298548649159E-03  1.65282892577096E-01
 cg2d: Sum(rhs),rhsMax =  -2.33334478193174E-03  1.65285776992758E-01
 cg2d: Sum(rhs),rhsMax =  -2.33370392061105E-03  1.65288658546407E-01
 cg2d: Sum(rhs),rhsMax =  -2.33406290479656E-03  1.65291537249745E-01
 cg2d: Sum(rhs),rhsMax =  -2.33442173589666E-03  1.65294413114455E-01
 cg2d: Sum(rhs),rhsMax =  -2.33478041556322E-03  1.65297286152221E-01
 cg2d: Sum(rhs),rhsMax =  -2.33513894502227E-03  1.65300156374716E-01
 cg2d: Sum(rhs),rhsMax =  -2.33549732635510E-03  1.65303023793606E-01
 cg2d: Sum(rhs),rhsMax =  -2.33585556122669E-03  1.65305888420555E-01
 cg2d: Sum(rhs),rhsMax =  -2.33621365106295E-03  1.65308750267209E-01
 cg2d: Sum(rhs),rhsMax =  -2.33657159747434E-03  1.65311609345215E-01
 cg2d: Sum(rhs),rhsMax =  -2.33692940268920E-03  1.65314465666211E-01
 cg2d: Sum(rhs),rhsMax =  -2.33728706769624E-03  1.65317319241830E-01
 cg2d: Sum(rhs),rhsMax =  -2.33764459456184E-03  1.65320170083692E-01
 cg2d: Sum(rhs),rhsMax =  -2.33800198485909E-03  1.65323018203414E-01
 cg2d: Sum(rhs),rhsMax =  -2.33835924038758E-03  1.65325863612603E-01
 cg2d: Sum(rhs),rhsMax =  -2.33871636296058E-03  1.65328706322861E-01
 cg2d: Sum(rhs),rhsMax =  -2.33907335403210E-03  1.65331546345779E-01
 cg2d: Sum(rhs),rhsMax =  -2.33943021531747E-03  1.65334383692946E-01
 cg2d: Sum(rhs),rhsMax =  -2.33978694863627E-03  1.65337218375938E-01
 cg2d: Sum(rhs),rhsMax =  -2.34014355555037E-03  1.65340050406327E-01
 cg2d: Sum(rhs),rhsMax =  -2.34050003787541E-03  1.65342879795676E-01
 cg2d: Sum(rhs),rhsMax =  -2.34085639738381E-03  1.65345706555542E-01
 cg2d: Sum(rhs),rhsMax =  -2.34121263560721E-03  1.65348530697469E-01
 cg2d: Sum(rhs),rhsMax =  -2.34156875459925E-03  1.65351352233001E-01
 cg2d: Sum(rhs),rhsMax =  -2.34192475613043E-03  1.65354171173671E-01
 cg2d: Sum(rhs),rhsMax =  -2.34228064166889E-03  1.65356987531000E-01
 cg2d: Sum(rhs),rhsMax =  -2.34263641269305E-03  1.65359801316511E-01
 cg2d: Sum(rhs),rhsMax =  -2.34299207183958E-03  1.65362612541711E-01
 cg2d: Sum(rhs),rhsMax =  -2.34334762025059E-03  1.65365421218101E-01
 cg2d: Sum(rhs),rhsMax =  -2.34370305975418E-03  1.65368227357177E-01
 cg2d: Sum(rhs),rhsMax =  -2.34405839210306E-03  1.65371030970422E-01
 cg2d: Sum(rhs),rhsMax =  -2.34441361906028E-03  1.65373832069319E-01
 cg2d: Sum(rhs),rhsMax =  -2.34476874253648E-03  1.65376630665337E-01
 cg2d: Sum(rhs),rhsMax =  -2.34512376440558E-03  1.65379426769936E-01
 cg2d: Sum(rhs),rhsMax =  -2.34547868658177E-03  1.65382220394575E-01
 cg2d: Sum(rhs),rhsMax =  -2.34583351038983E-03  1.65385011550699E-01
 cg2d: Sum(rhs),rhsMax =  -2.34618823805535E-03  1.65387800249747E-01
 cg2d: Sum(rhs),rhsMax =  -2.34654287106761E-03  1.65390586503150E-01
 cg2d: Sum(rhs),rhsMax =  -2.34689741182031E-03  1.65393370322331E-01
 cg2d: Sum(rhs),rhsMax =  -2.34725186147836E-03  1.65396151718708E-01
 cg2d: Sum(rhs),rhsMax =  -2.34760622217018E-03  1.65398930703681E-01
 cg2d: Sum(rhs),rhsMax =  -2.34796049562230E-03  1.65401707288657E-01
 cg2d: Sum(rhs),rhsMax =  -2.34831468395483E-03  1.65404481485021E-01
 cg2d: Sum(rhs),rhsMax =  -2.34866878853650E-03  1.65407253304159E-01
 cg2d: Sum(rhs),rhsMax =  -2.34902281178857E-03  1.65410022757443E-01
 cg2d: Sum(rhs),rhsMax =  -2.34937675504440E-03  1.65412789856243E-01
 cg2d: Sum(rhs),rhsMax =  -2.34973062080962E-03  1.65415554611914E-01
 cg2d: Sum(rhs),rhsMax =  -2.35008441043029E-03  1.65418317035807E-01
 cg2d: Sum(rhs),rhsMax =  -2.35043812572139E-03  1.65421077139264E-01
 cg2d: Sum(rhs),rhsMax =  -2.35079176933954E-03  1.65423834933620E-01
 cg2d: Sum(rhs),rhsMax =  -2.35114534226133E-03  1.65426590430196E-01
(PID.TID 0000.0001)      cg2d_init_res =   1.12792131026034E-03
(PID.TID 0000.0001)      cg2d_iters(min,last) =      -1      76
(PID.TID 0000.0001)      cg2d_last_res =   8.96200336539437E-08
(PID.TID 0000.0001) // =======================================================
(PID.TID 0000.0001) // Begin MONITOR dynamic field statistics
(PID.TID 0000.0001) // =======================================================
(PID.TID 0000.0001) %MON time_tsnumber                =                  7632
(PID.TID 0000.0001) %MON time_secondsf                =   9.1584000000000E+06
(PID.TID 0000.0001) %MON dynstat_eta_max              =   1.8635449177203E-01
(PID.TID 0000.0001) %MON dynstat_eta_min              =  -7.0955800930329E-02
(PID.TID 0000.0001) %MON dynstat_eta_mean             =   1.9440379137920E-06
(PID.TID 0000.0001) %MON dynstat_eta_sd               =   7.7046336173306E-02
(PID.TID 0000.0001) %MON dynstat_eta_del2             =   2.4150954115196E-05
(PID.TID 0000.0001) %MON dynstat_uvel_max             =   1.2011136984315E-01
(PID.TID 0000.0001) %MON dynstat_uvel_min             =  -7.0199797901115E-02
(PID.TID 0000.0001) %MON dynstat_uvel_mean            =   5.9754281506279E-08
(PID.TID 0000.0001) %MON dynstat_uvel_sd              =   3.2997855478696E-02
(PID.TID 0000.0001) %MON dynstat_uvel_del2            =   6.0980768308071E-05
(PID.TID 0000.0001) %MON dynstat_vvel_max             =   7.7373233761779E-02
(PID.TID 0000.0001) %MON dynstat_vvel_min             =  -7.8784531308657E-02
(PID.TID 0000.0001) %MON dynstat_vvel_mean            =   1.3489116155552E-07
(PID.TID 0000.0001) %MON dynstat_vvel_sd              =   2.9019427446951E-02
(PID.TID 0000.0001) %MON dynstat_vvel_del2            =   4.1678001755545E-05
(PID.TID 0000.0001) %MON dynstat_wvel_max             =   1.8462011899392E-08
(PID.TID 0000.0001) %MON dynstat_wvel_min             =  -1.1888258780818E-08
(PID.TID 0000.0001) %MON dynstat_wvel_mean            =   3.4398378071880E-22
(PID.TID 0000.0001) %MON dynstat_wvel_sd              =   6.9393331337158E-09
(PID.TID 0000.0001) %MON dynstat_wvel_del2            =   3.2901799754385E-12
(PID.TID 0000.0001) %MON dynstat_theta_max            =   2.0000000000000E+01
(PID.TID 0000.0001) %MON dynstat_theta_min            =   2.0000000000000E+01
(PID.TID 0000.0001) %MON dynstat_theta_mean           =   2.0000000000000E+01
(PID.TID 0000.0001) %MON dynstat_theta_sd             =   3.8014036363165E-13
(PID.TID 0000.0001) %MON dynstat_theta_del2           =   0.0000000000000E+00
(PID.TID 0000.0001) %MON dynstat_salt_max             =   3.0000000000000E+01
(PID.TID 0000.0001) %MON dynstat_salt_min             =   3.0000000000000E+01
(PID.TID 0000.0001) %MON dynstat_salt_mean            =   2.9999999999999E+01
(PID.TID 0000.0001) %MON dynstat_salt_sd              =   5.5777604757167E-13
(PID.TID 0000.0001) %MON dynstat_salt_del2            =   0.0000000000000E+00
(PID.TID 0000.0001) %MON trAdv_CFL_u_max              =   7.2049706602076E-03
(PID.TID 0000.0001) %MON trAdv_CFL_v_max              =   4.7196538993204E-03
(PID.TID 0000.0001) %MON trAdv_CFL_w_max              =   4.8532550940179E-09
(PID.TID 0000.0001) %MON advcfl_uvel_max              =   7.2066821905889E-03
(PID.TID 0000.0001) %MON advcfl_vvel_max              =   4.7270718785194E-03
(PID.TID 0000.0001) %MON advcfl_wvel_max              =   8.8617657117080E-09
(PID.TID 0000.0001) %MON advcfl_W_hf_max              =   0.0000000000000E+00
(PID.TID 0000.0001) %MON pe_b_mean                    =   6.0859345339929E-06
(PID.TID 0000.0001) %MON ke_max                       =   7.2196357516238E-03
(PID.TID 0000.0001) %MON ke_mean                      =   9.4773874105363E-04
(PID.TID 0000.0001) %MON ke_vol                       =   6.8893493896486E+15
(PID.TID 0000.0001) %MON vort_r_min                   =  -1.1672126158826E-06
(PID.TID 0000.0001) %MON vort_r_max                   =   2.6532515284690E-06
(PID.TID 0000.0001) %MON vort_a_mean                  =   1.0600000000000E-04
(PID.TID 0000.0001) %MON vort_a_sd                    =   3.5480130380682E-06
(PID.TID 0000.0001) %MON vort_p_mean                  =   1.1652272308690E-04
(PID.TID 0000.0001) %MON vort_p_sd                    =   4.1779720899871E-05
(PID.TID 0000.0001) %MON surfExpan_theta_mean         =   6.8412633582840E-21
(PID.TID 0000.0001) %MON surfExpan_salt_mean          =   1.0243578824682E-20
(PID.TID 0000.0001) // =======================================================
(PID.TID 0000.0001) // End MONITOR dynamic field statistics
(PID.TID 0000.0001) // =======================================================
 cg2d: Sum(rhs),rhsMax =  -2.35149884698910E-03  1.65429343640313E-01
 cg2d: Sum(rhs),rhsMax =  -2.35185228518102E-03  1.65432094575278E-01
 cg2d: Sum(rhs),rhsMax =  -2.35220565856230E-03  1.65434843246393E-01
 cg2d: Sum(rhs),rhsMax =  -2.35255896897592E-03  1.65437589664947E-01
 cg2d: Sum(rhs),rhsMax =  -2.35291221931404E-03  1.65440333842225E-01
 cg2d: Sum(rhs),rhsMax =  -2.35326541068133E-03  1.65443075789502E-01
 cg2d: Sum(rhs),rhsMax =  -2.35361854496756E-03  1.65445815518045E-01
 cg2d: Sum(rhs),rhsMax =  -2.35397162451729E-03  1.65448553039112E-01
 cg2d: Sum(rhs),rhsMax =  -2.35432465111550E-03  1.65451288363952E-01
 cg2d: Sum(rhs),rhsMax =  -2.35467762631933E-03  1.65454021503808E-01
 cg2d: Sum(rhs),rhsMax =  -2.35503055313245E-03  1.65456752469910E-01
 cg2d: Sum(rhs),rhsMax =  -2.35538343270996E-03  1.65459481273484E-01
 cg2d: Sum(rhs),rhsMax =  -2.35573626718354E-03  1.65462207925743E-01
 cg2d: Sum(rhs),rhsMax =  -2.35608905881229E-03  1.65464932437896E-01
 cg2d: Sum(rhs),rhsMax =  -2.35644180914358E-03  1.65467654821143E-01
 cg2d: Sum(rhs),rhsMax =  -2.35679452058745E-03  1.65470375086669E-01
 cg2d: Sum(rhs),rhsMax =  -2.35714719480772E-03  1.65473093245660E-01
 cg2d: Sum(rhs),rhsMax =  -2.35749983429282E-03  1.65475809309281E-01
 cg2d: Sum(rhs),rhsMax =  -2.35785244066599E-03  1.65478523288704E-01
 cg2d: Sum(rhs),rhsMax =  -2.35820501599774E-03  1.65481235195078E-01
 cg2d: Sum(rhs),rhsMax =  -2.35855756236024E-03  1.65483945039552E-01
 cg2d: Sum(rhs),rhsMax =  -2.35891008189366E-03  1.65486652833261E-01
 cg2d: Sum(rhs),rhsMax =  -2.35926257691688E-03  1.65489358587333E-01
 cg2d: Sum(rhs),rhsMax =  -2.35961504883878E-03  1.65492062312890E-01
 cg2d: Sum(rhs),rhsMax =  -2.35996749994367E-03  1.65494764021039E-01
 cg2d: Sum(rhs),rhsMax =  -2.36031993283509E-03  1.65497463722886E-01
 cg2d: Sum(rhs),rhsMax =  -2.36067234901143E-03  1.65500161429522E-01
 cg2d: Sum(rhs),rhsMax =  -2.36102475094571E-03  1.65502857152031E-01
 cg2d: Sum(rhs),rhsMax =  -2.36137714072569E-03  1.65505550901486E-01
 cg2d: Sum(rhs),rhsMax =  -2.36172952002927E-03  1.65508242688955E-01
 cg2d: Sum(rhs),rhsMax =  -2.36208189093412E-03  1.65510932525495E-01
 cg2d: Sum(rhs),rhsMax =  -2.36243425637908E-03  1.65513620422153E-01
 cg2d: Sum(rhs),rhsMax =  -2.36278661817656E-03  1.65516306389969E-01
 cg2d: Sum(rhs),rhsMax =  -2.36313897820014E-03  1.65518990439973E-01
 cg2d: Sum(rhs),rhsMax =  -2.36349133860216E-03  1.65521672583183E-01
 cg2d: Sum(rhs),rhsMax =  -2.36384370182881E-03  1.65524352830616E-01
 cg2d: Sum(rhs),rhsMax =  -2.36419606992857E-03  1.65527031193268E-01
 cg2d: Sum(rhs),rhsMax =  -2.36454844506678E-03  1.65529707682138E-01
 cg2d: Sum(rhs),rhsMax =  -2.36490082943072E-03  1.65532382308207E-01
 cg2d: Sum(rhs),rhsMax =  -2.36525322491258E-03  1.65535055082453E-01
 cg2d: Sum(rhs),rhsMax =  -2.36560563427300E-03  1.65537726015837E-01
 cg2d: Sum(rhs),rhsMax =  -2.36595805924389E-03  1.65540395119320E-01
 cg2d: Sum(rhs),rhsMax =  -2.36631050249948E-03  1.65543062403845E-01
 cg2d: Sum(rhs),rhsMax =  -2.36666296557697E-03  1.65545727880355E-01
 cg2d: Sum(rhs),rhsMax =  -2.36701545178055E-03  1.65548391559776E-01
 cg2d: Sum(rhs),rhsMax =  -2.36736796250324E-03  1.65551053453027E-01
 cg2d: Sum(rhs),rhsMax =  -2.36772050023827E-03  1.65553713571017E-01
 cg2d: Sum(rhs),rhsMax =  -2.36807306700000E-03  1.65556371924650E-01
 cg2d: Sum(rhs),rhsMax =  -2.36842566567682E-03  1.65559028524815E-01
 cg2d: Sum(rhs),rhsMax =  -2.36877829795564E-03  1.65561683382392E-01
 cg2d: Sum(rhs),rhsMax =  -2.36913096655395E-03  1.65564336508258E-01
 cg2d: Sum(rhs),rhsMax =  -2.36948367361227E-03  1.65566987913273E-01
 cg2d: Sum(rhs),rhsMax =  -2.36983642118713E-03  1.65569637608290E-01
 cg2d: Sum(rhs),rhsMax =  -2.37018921235958E-03  1.65572285604153E-01
 cg2d: Sum(rhs),rhsMax =  -2.37054204826144E-03  1.65574931911697E-01
 cg2d: Sum(rhs),rhsMax =  -2.37089493189731E-03  1.65577576541749E-01
 cg2d: Sum(rhs),rhsMax =  -2.37124786566574E-03  1.65580219505119E-01
 cg2d: Sum(rhs),rhsMax =  -2.37160085171060E-03  1.65582860812616E-01
 cg2d: Sum(rhs),rhsMax =  -2.37195389281370E-03  1.65585500475038E-01
 cg2d: Sum(rhs),rhsMax =  -2.37230699090549E-03  1.65588138503167E-01
 cg2d: Sum(rhs),rhsMax =  -2.37266014854879E-03  1.65590774907781E-01
 cg2d: Sum(rhs),rhsMax =  -2.37301336796132E-03  1.65593409699652E-01
 cg2d: Sum(rhs),rhsMax =  -2.37336665172503E-03  1.65596042889530E-01
 cg2d: Sum(rhs),rhsMax =  -2.37372000218764E-03  1.65598674488166E-01
 cg2d: Sum(rhs),rhsMax =  -2.37407342167702E-03  1.65601304506299E-01
 cg2d: Sum(rhs),rhsMax =  -2.37442691272509E-03  1.65603932954655E-01
 cg2d: Sum(rhs),rhsMax =  -2.37478047793499E-03  1.65606559843954E-01
 cg2d: Sum(rhs),rhsMax =  -2.37513411950373E-03  1.65609185184902E-01
 cg2d: Sum(rhs),rhsMax =  -2.37548783998706E-03  1.65611808988200E-01
 cg2d: Sum(rhs),rhsMax =  -2.37584164197974E-03  1.65614431264538E-01
 cg2d: Sum(rhs),rhsMax =  -2.37619552736719E-03  1.65617052024593E-01
 cg2d: Sum(rhs),rhsMax =  -2.37654949936591E-03  1.65619671279033E-01
(PID.TID 0000.0001)      cg2d_init_res =   1.11342803155315E-03
(PID.TID 0000.0001)      cg2d_iters(min,last) =      -1      76
(PID.TID 0000.0001)      cg2d_last_res =   8.96835904247193E-08
(PID.TID 0000.0001) // =======================================================
(PID.TID 0000.0001) // Begin MONITOR dynamic field statistics
(PID.TID 0000.0001) // =======================================================
(PID.TID 0000.0001) %MON time_tsnumber                =                  7704
(PID.TID 0000.0001) %MON time_secondsf                =   9.2448000000000E+06
(PID.TID 0000.0001) %MON dynstat_eta_max              =   1.8786414445493E-01
(PID.TID 0000.0001) %MON dynstat_eta_min              =  -7.1397588106306E-02
(PID.TID 0000.0001) %MON dynstat_eta_mean             =   1.9673324595869E-06
(PID.TID 0000.0001) %MON dynstat_eta_sd               =   7.7580105229200E-02
(PID.TID 0000.0001) %MON dynstat_eta_del2             =   2.4236561451276E-05
(PID.TID 0000.0001) %MON dynstat_uvel_max             =   1.2055951274699E-01
(PID.TID 0000.0001) %MON dynstat_uvel_min             =  -7.0771487594365E-02
(PID.TID 0000.0001) %MON dynstat_uvel_mean            =   5.5332603266888E-08
(PID.TID 0000.0001) %MON dynstat_uvel_sd              =   3.3192550478375E-02
(PID.TID 0000.0001) %MON dynstat_uvel_del2            =   6.1229591018607E-05
(PID.TID 0000.0001) %MON dynstat_vvel_max             =   7.6729498319150E-02
(PID.TID 0000.0001) %MON dynstat_vvel_min             =  -7.9391817512600E-02
(PID.TID 0000.0001) %MON dynstat_vvel_mean            =   1.3001265647088E-07
(PID.TID 0000.0001) %MON dynstat_vvel_sd              =   2.9206640762913E-02
(PID.TID 0000.0001) %MON dynstat_vvel_del2            =   4.1467790801181E-05
(PID.TID 0000.0001) %MON dynstat_wvel_max             =   1.8404051667894E-08
(PID.TID 0000.0001) %MON dynstat_wvel_min             =  -1.1680742334574E-08
(PID.TID 0000.0001) %MON dynstat_wvel_mean            =  -8.7390945837898E-22
(PID.TID 0000.0001) %MON dynstat_wvel_sd              =   6.9282967796788E-09
(PID.TID 0000.0001) %MON dynstat_wvel_del2            =   3.2734819226294E-12
(PID.TID 0000.0001) %MON dynstat_theta_max            =   2.0000000000000E+01
(PID.TID 0000.0001) %MON dynstat_theta_min            =   2.0000000000000E+01
(PID.TID 0000.0001) %MON dynstat_theta_mean           =   2.0000000000000E+01
(PID.TID 0000.0001) %MON dynstat_theta_sd             =   3.8014036363165E-13
(PID.TID 0000.0001) %MON dynstat_theta_del2           =   0.0000000000000E+00
(PID.TID 0000.0001) %MON dynstat_salt_max             =   3.0000000000000E+01
(PID.TID 0000.0001) %MON dynstat_salt_min             =   3.0000000000000E+01
(PID.TID 0000.0001) %MON dynstat_salt_mean            =   2.9999999999999E+01
(PID.TID 0000.0001) %MON dynstat_salt_sd              =   5.5777604757167E-13
(PID.TID 0000.0001) %MON dynstat_salt_del2            =   0.0000000000000E+00
(PID.TID 0000.0001) %MON trAdv_CFL_u_max              =   7.2318835492823E-03
(PID.TID 0000.0001) %MON trAdv_CFL_v_max              =   4.7560269444247E-03
(PID.TID 0000.0001) %MON trAdv_CFL_w_max              =   4.8379894806865E-09
(PID.TID 0000.0001) %MON advcfl_uvel_max              =   7.2335707648195E-03
(PID.TID 0000.0001) %MON advcfl_vvel_max              =   4.7635090507560E-03
(PID.TID 0000.0001) %MON advcfl_wvel_max              =   8.8339448005892E-09
(PID.TID 0000.0001) %MON advcfl_W_hf_max              =   0.0000000000000E+00
(PID.TID 0000.0001) %MON pe_b_mean                    =   6.1705520842356E-06
(PID.TID 0000.0001) %MON ke_max                       =   7.2696970788472E-03
(PID.TID 0000.0001) %MON ke_mean                      =   9.5941384838250E-04
(PID.TID 0000.0001) %MON ke_vol                       =   6.8893493896486E+15
(PID.TID 0000.0001) %MON vort_r_min                   =  -1.1718217768496E-06
(PID.TID 0000.0001) %MON vort_r_max                   =   2.6601903163897E-06
(PID.TID 0000.0001) %MON vort_a_mean                  =   1.0600000000000E-04
(PID.TID 0000.0001) %MON vort_a_sd                    =   3.5481674891263E-06
(PID.TID 0000.0001) %MON vort_p_mean                  =   1.1652272308690E-04
(PID.TID 0000.0001) %MON vort_p_sd                    =   4.1779992004053E-05
(PID.TID 0000.0001) %MON surfExpan_theta_mean         =  -1.7448422953395E-20
(PID.TID 0000.0001) %MON surfExpan_salt_mean          =  -2.6172328501970E-20
(PID.TID 0000.0001) // =======================================================
(PID.TID 0000.0001) // End MONITOR dynamic field statistics
(PID.TID 0000.0001) // =======================================================
 cg2d: Sum(rhs),rhsMax =  -2.37690355990072E-03  1.65622289038519E-01
 cg2d: Sum(rhs),rhsMax =  -2.37725771181322E-03  1.65624905313702E-01
 cg2d: Sum(rhs),rhsMax =  -2.37761195775354E-03  1.65627520115218E-01
 cg2d: Sum(rhs),rhsMax =  -2.37796629950120E-03  1.65630133453697E-01
 cg2d: Sum(rhs),rhsMax =  -2.37832074030208E-03  1.65632745339759E-01
 cg2d: Sum(rhs),rhsMax =  -2.37867528263270E-03  1.65635355784012E-01
 cg2d: Sum(rhs),rhsMax =  -2.37902992844417E-03  1.65637964797058E-01
 cg2d: Sum(rhs),rhsMax =  -2.37938468101268E-03  1.65640572389484E-01
 cg2d: Sum(rhs),rhsMax =  -2.37973954247649E-03  1.65643178571871E-01
 cg2d: Sum(rhs),rhsMax =  -2.38009451554978E-03  1.65645783354785E-01
 cg2d: Sum(rhs),rhsMax =  -2.38044960255058E-03  1.65648386748788E-01
 cg2d: Sum(rhs),rhsMax =  -2.38080480690324E-03  1.65650988764428E-01
 cg2d: Sum(rhs),rhsMax =  -2.38116013014639E-03  1.65653589412241E-01
 cg2d: Sum(rhs),rhsMax =  -2.38151557534474E-03  1.65656188702759E-01
 cg2d: Sum(rhs),rhsMax =  -2.38187114507348E-03  1.65658786646498E-01
 cg2d: Sum(rhs),rhsMax =  -2.38222684203638E-03  1.65661383253967E-01
 cg2d: Sum(rhs),rhsMax =  -2.38258266867177E-03  1.65663978535665E-01
 cg2d: Sum(rhs),rhsMax =  -2.38293862772017E-03  1.65666572502078E-01
 cg2d: Sum(rhs),rhsMax =  -2.38329472183185E-03  1.65669165163681E-01
 cg2d: Sum(rhs),rhsMax =  -2.38365095367719E-03  1.65671756530946E-01
 cg2d: Sum(rhs),rhsMax =  -2.38400732583367E-03  1.65674346614325E-01
 cg2d: Sum(rhs),rhsMax =  -2.38436384114792E-03  1.65676935424267E-01
 cg2d: Sum(rhs),rhsMax =  -2.38472050179387E-03  1.65679522971206E-01
 cg2d: Sum(rhs),rhsMax =  -2.38507731114447E-03  1.65682109265569E-01
 cg2d: Sum(rhs),rhsMax =  -2.38543427163613E-03  1.65684694317770E-01
 cg2d: Sum(rhs),rhsMax =  -2.38579138551305E-03  1.65687278138216E-01
 cg2d: Sum(rhs),rhsMax =  -2.38614865631942E-03  1.65689860737297E-01
 cg2d: Sum(rhs),rhsMax =  -2.38650608607616E-03  1.65692442125401E-01
 cg2d: Sum(rhs),rhsMax =  -2.38686367786150E-03  1.65695022312898E-01
 cg2d: Sum(rhs),rhsMax =  -2.38722143422463E-03  1.65697601310154E-01
 cg2d: Sum(rhs),rhsMax =  -2.38757935821474E-03  1.65700179127518E-01
 cg2d: Sum(rhs),rhsMax =  -2.38793745210828E-03  1.65702755775336E-01
 cg2d: Sum(rhs),rhsMax =  -2.38829571862129E-03  1.65705331263934E-01
 cg2d: Sum(rhs),rhsMax =  -2.38865416119260E-03  1.65707905603635E-01
 cg2d: Sum(rhs),rhsMax =  -2.38901278182318E-03  1.65710478804749E-01
 cg2d: Sum(rhs),rhsMax =  -2.38937158397805E-03  1.65713050877575E-01
 cg2d: Sum(rhs),rhsMax =  -2.38973056982069E-03  1.65715621832403E-01
 cg2d: Sum(rhs),rhsMax =  -2.39008974237661E-03  1.65718191679509E-01
 cg2d: Sum(rhs),rhsMax =  -2.39044910443997E-03  1.65720760429163E-01
 cg2d: Sum(rhs),rhsMax =  -2.39080865854186E-03  1.65723328091618E-01
 cg2d: Sum(rhs),rhsMax =  -2.39116840820879E-03  1.65725894677122E-01
 cg2d: Sum(rhs),rhsMax =  -2.39152835569028E-03  1.65728460195913E-01
 cg2d: Sum(rhs),rhsMax =  -2.39188850368501E-03  1.65731024658209E-01
 cg2d: Sum(rhs),rhsMax =  -2.39224885518306E-03  1.65733588074230E-01
 cg2d: Sum(rhs),rhsMax =  -2.39260941328101E-03  1.65736150454173E-01
 cg2d: Sum(rhs),rhsMax =  -2.39297018048718E-03  1.65738711808236E-01
 cg2d: Sum(rhs),rhsMax =  -2.39333115966044E-03  1.65741272146596E-01
 cg2d: Sum(rhs),rhsMax =  -2.39369235350935E-03  1.65743831479425E-01
 cg2d: Sum(rhs),rhsMax =  -2.39405376517545E-03  1.65746389816881E-01
 cg2d: Sum(rhs),rhsMax =  -2.39441539758370E-03  1.65748947169115E-01
 cg2d: Sum(rhs),rhsMax =  -2.39477725327933E-03  1.65751503546264E-01
 cg2d: Sum(rhs),rhsMax =  -2.39513933509271E-03  1.65754058958453E-01
 cg2d: Sum(rhs),rhsMax =  -2.39550164621201E-03  1.65756613415799E-01
 cg2d: Sum(rhs),rhsMax =  -2.39586418921292E-03  1.65759166928407E-01
 cg2d: Sum(rhs),rhsMax =  -2.39622696679935E-03  1.65761719506371E-01
 cg2d: Sum(rhs),rhsMax =  -2.39658998222647E-03  1.65764271159773E-01
 cg2d: Sum(rhs),rhsMax =  -2.39695323844277E-03  1.65766821898685E-01
 cg2d: Sum(rhs),rhsMax =  -2.39731673817725E-03  1.65769371733169E-01
 cg2d: Sum(rhs),rhsMax =  -2.39768048400724E-03  1.65771920673275E-01
 cg2d: Sum(rhs),rhsMax =  -2.39804447925005E-03  1.65774468729038E-01
 cg2d: Sum(rhs),rhsMax =  -2.39840872638147E-03  1.65777015910488E-01
 cg2d: Sum(rhs),rhsMax =  -2.39877322837491E-03  1.65779562227644E-01
 cg2d: Sum(rhs),rhsMax =  -2.39913798846953E-03  1.65782107690504E-01
 cg2d: Sum(rhs),rhsMax =  -2.39950300915735E-03  1.65784652309071E-01
 cg2d: Sum(rhs),rhsMax =  -2.39986829352729E-03  1.65787196093321E-01
 cg2d: Sum(rhs),rhsMax =  -2.40023384485023E-03  1.65789739053232E-01
 cg2d: Sum(rhs),rhsMax =  -2.40059966517681E-03  1.65792281198758E-01
 cg2d: Sum(rhs),rhsMax =  -2.40096575788541E-03  1.65794822539850E-01
 cg2d: Sum(rhs),rhsMax =  -2.40133212565873E-03  1.65797363086450E-01
 cg2d: Sum(rhs),rhsMax =  -2.40169877229628E-03  1.65799902848482E-01
 cg2d: Sum(rhs),rhsMax =  -2.40206569950099E-03  1.65802441835859E-01
 cg2d: Sum(rhs),rhsMax =  -2.40243291061766E-03  1.65804980058491E-01
(PID.TID 0000.0001)      cg2d_init_res =   1.09943684077610E-03
(PID.TID 0000.0001)      cg2d_iters(min,last) =      -1      76
(PID.TID 0000.0001)      cg2d_last_res =   8.96229276841374E-08
(PID.TID 0000.0001) // =======================================================
(PID.TID 0000.0001) // Begin MONITOR dynamic field statistics
(PID.TID 0000.0001) // =======================================================
(PID.TID 0000.0001) %MON time_tsnumber                =                  7776
(PID.TID 0000.0001) %MON time_secondsf                =   9.3312000000000E+06
(PID.TID 0000.0001) %MON dynstat_eta_max              =   1.8937280782807E-01
(PID.TID 0000.0001) %MON dynstat_eta_min              =  -7.1846813198266E-02
(PID.TID 0000.0001) %MON dynstat_eta_mean             =   1.9909911429957E-06
(PID.TID 0000.0001) %MON dynstat_eta_sd               =   7.8115872844868E-02
(PID.TID 0000.0001) %MON dynstat_eta_del2             =   2.4318949511738E-05
(PID.TID 0000.0001) %MON dynstat_uvel_max             =   1.2097381724898E-01
(PID.TID 0000.0001) %MON dynstat_uvel_min             =  -7.1330956925547E-02
(PID.TID 0000.0001) %MON dynstat_uvel_mean            =   4.9656991973563E-08
(PID.TID 0000.0001) %MON dynstat_uvel_sd              =   3.3385324175674E-02
(PID.TID 0000.0001) %MON dynstat_uvel_del2            =   6.1462794824367E-05
(PID.TID 0000.0001) %MON dynstat_vvel_max             =   7.6124313132044E-02
(PID.TID 0000.0001) %MON dynstat_vvel_min             =  -8.0011880697418E-02
(PID.TID 0000.0001) %MON dynstat_vvel_mean            =   1.2579876107189E-07
(PID.TID 0000.0001) %MON dynstat_vvel_sd              =   2.9396942146380E-02
(PID.TID 0000.0001) %MON dynstat_vvel_del2            =   4.1270059354163E-05
(PID.TID 0000.0001) %MON dynstat_wvel_max             =   1.8354559960280E-08
(PID.TID 0000.0001) %MON dynstat_wvel_min             =  -1.1379334204830E-08
(PID.TID 0000.0001) %MON dynstat_wvel_mean            =   1.4110830509000E-21
(PID.TID 0000.0001) %MON dynstat_wvel_sd              =   6.9173725559212E-09
(PID.TID 0000.0001) %MON dynstat_wvel_del2            =   3.2570702141056E-12
(PID.TID 0000.0001) %MON dynstat_theta_max            =   2.0000000000000E+01
(PID.TID 0000.0001) %MON dynstat_theta_min            =   2.0000000000000E+01
(PID.TID 0000.0001) %MON dynstat_theta_mean           =   2.0000000000000E+01
(PID.TID 0000.0001) %MON dynstat_theta_sd             =   3.8014036363165E-13
(PID.TID 0000.0001) %MON dynstat_theta_del2           =   0.0000000000000E+00
(PID.TID 0000.0001) %MON dynstat_salt_max             =   3.0000000000000E+01
(PID.TID 0000.0001) %MON dynstat_salt_min             =   3.0000000000000E+01
(PID.TID 0000.0001) %MON dynstat_salt_mean            =   2.9999999999999E+01
(PID.TID 0000.0001) %MON dynstat_salt_sd              =   5.5777604757167E-13
(PID.TID 0000.0001) %MON dynstat_salt_del2            =   0.0000000000000E+00
(PID.TID 0000.0001) %MON trAdv_CFL_u_max              =   7.2567643741330E-03
(PID.TID 0000.0001) %MON trAdv_CFL_v_max              =   4.7931658295512E-03
(PID.TID 0000.0001) %MON trAdv_CFL_w_max              =   4.8249480915305E-09
(PID.TID 0000.0001) %MON advcfl_uvel_max              =   7.2584290349387E-03
(PID.TID 0000.0001) %MON advcfl_vvel_max              =   4.8007128418451E-03
(PID.TID 0000.0001) %MON advcfl_wvel_max              =   8.8101887809346E-09
(PID.TID 0000.0001) %MON advcfl_W_hf_max              =   0.0000000000000E+00
(PID.TID 0000.0001) %MON pe_b_mean                    =   6.2560739461226E-06
(PID.TID 0000.0001) %MON ke_max                       =   7.3176741040234E-03
(PID.TID 0000.0001) %MON ke_mean                      =   9.7118670927870E-04
(PID.TID 0000.0001) %MON ke_vol                       =   6.8893493896486E+15
(PID.TID 0000.0001) %MON vort_r_min                   =  -1.1755987232300E-06
(PID.TID 0000.0001) %MON vort_r_max                   =   2.6670973900808E-06
(PID.TID 0000.0001) %MON vort_a_mean                  =   1.0600000000000E-04
(PID.TID 0000.0001) %MON vort_a_sd                    =   3.5483180632674E-06
(PID.TID 0000.0001) %MON vort_p_mean                  =   1.1652272308690E-04
(PID.TID 0000.0001) %MON vort_p_sd                    =   4.1780258559535E-05
(PID.TID 0000.0001) %MON surfExpan_theta_mean         =   2.8218573157169E-20
(PID.TID 0000.0001) %MON surfExpan_salt_mean          =   4.2319649019697E-20
(PID.TID 0000.0001) // =======================================================
(PID.TID 0000.0001) // End MONITOR dynamic field statistics
(PID.TID 0000.0001) // =======================================================
 cg2d: Sum(rhs),rhsMax =  -2.40280040882481E-03  1.65807517526266E-01
 cg2d: Sum(rhs),rhsMax =  -2.40316819656718E-03  1.65810054249068E-01
 cg2d: Sum(rhs),rhsMax =  -2.40353627705927E-03  1.65812590236767E-01
 cg2d: Sum(rhs),rhsMax =  -2.40390465300975E-03  1.65815125499222E-01
 cg2d: Sum(rhs),rhsMax =  -2.40427332767793E-03  1.65817660046280E-01
 cg2d: Sum(rhs),rhsMax =  -2.40464230356152E-03  1.65820193887775E-01
 cg2d: Sum(rhs),rhsMax =  -2.40501158370709E-03  1.65822727033534E-01
 cg2d: Sum(rhs),rhsMax =  -2.40538117097066E-03  1.65825259493370E-01
 cg2d: Sum(rhs),rhsMax =  -2.40575106842753E-03  1.65827791277084E-01
 cg2d: Sum(rhs),rhsMax =  -2.40612127882290E-03  1.65830322394467E-01
 cg2d: Sum(rhs),rhsMax =  -2.40649180523388E-03  1.65832852855297E-01
 cg2d: Sum(rhs),rhsMax =  -2.40686265005657E-03  1.65835382669341E-01
 cg2d: Sum(rhs),rhsMax =  -2.40723381678918E-03  1.65837911846358E-01
 cg2d: Sum(rhs),rhsMax =  -2.40760530775623E-03  1.65840440396086E-01
 cg2d: Sum(rhs),rhsMax =  -2.40797712632747E-03  1.65842968328261E-01
 cg2d: Sum(rhs),rhsMax =  -2.40834927505202E-03  1.65845495652607E-01
 cg2d: Sum(rhs),rhsMax =  -2.40872175694909E-03  1.65848022378827E-01
 cg2d: Sum(rhs),rhsMax =  -2.40909457473030E-03  1.65850548516624E-01
 cg2d: Sum(rhs),rhsMax =  -2.40946773159116E-03  1.65853074075682E-01
 cg2d: Sum(rhs),rhsMax =  -2.40984122998364E-03  1.65855599065674E-01
 cg2d: Sum(rhs),rhsMax =  -2.41021507312393E-03  1.65858123496266E-01
 cg2d: Sum(rhs),rhsMax =  -2.41058926392513E-03  1.65860647377107E-01
 cg2d: Sum(rhs),rhsMax =  -2.41096380468817E-03  1.65863170717834E-01
 cg2d: Sum(rhs),rhsMax =  -2.41133869884036E-03  1.65865693528081E-01
 cg2d: Sum(rhs),rhsMax =  -2.41171394896790E-03  1.65868215817459E-01
 cg2d: Sum(rhs),rhsMax =  -2.41208955780544E-03  1.65870737595573E-01
 cg2d: Sum(rhs),rhsMax =  -2.41246552848568E-03  1.65873258872019E-01
 cg2d: Sum(rhs),rhsMax =  -2.41284186379138E-03  1.65875779656370E-01
 cg2d: Sum(rhs),rhsMax =  -2.41321856607358E-03  1.65878299958203E-01
 cg2d: Sum(rhs),rhsMax =  -2.41359563851023E-03  1.65880819787071E-01
 cg2d: Sum(rhs),rhsMax =  -2.41397308402267E-03  1.65883339152518E-01
 cg2d: Sum(rhs),rhsMax =  -2.41435090522737E-03  1.65885858064079E-01
 cg2d: Sum(rhs),rhsMax =  -2.41472910513202E-03  1.65888376531276E-01
 cg2d: Sum(rhs),rhsMax =  -2.41510768632493E-03  1.65890894563616E-01
 cg2d: Sum(rhs),rhsMax =  -2.41548665140798E-03  1.65893412170601E-01
 cg2d: Sum(rhs),rhsMax =  -2.41586600333451E-03  1.65895929361709E-01
 cg2d: Sum(rhs),rhsMax =  -2.41624574509970E-03  1.65898446146424E-01
 cg2d: Sum(rhs),rhsMax =  -2.41662587948660E-03  1.65900962534199E-01
 cg2d: Sum(rhs),rhsMax =  -2.41700640870988E-03  1.65903478534489E-01
 cg2d: Sum(rhs),rhsMax =  -2.41738733610939E-03  1.65905994156729E-01
 cg2d: Sum(rhs),rhsMax =  -2.41776866389094E-03  1.65908509410346E-01
 cg2d: Sum(rhs),rhsMax =  -2.41815039493587E-03  1.65911024304752E-01
 cg2d: Sum(rhs),rhsMax =  -2.41853253197344E-03  1.65913538849353E-01
 cg2d: Sum(rhs),rhsMax =  -2.41891507775277E-03  1.65916053053535E-01
 cg2d: Sum(rhs),rhsMax =  -2.41929803523903E-03  1.65918566926676E-01
 cg2d: Sum(rhs),rhsMax =  -2.41968140660473E-03  1.65921080478141E-01
 cg2d: Sum(rhs),rhsMax =  -2.42006519488183E-03  1.65923593717284E-01
 cg2d: Sum(rhs),rhsMax =  -2.42044940246400E-03  1.65926106653450E-01
 cg2d: Sum(rhs),rhsMax =  -2.42083403236462E-03  1.65928619295964E-01
 cg2d: Sum(rhs),rhsMax =  -2.42121908691358E-03  1.65931131654142E-01
 cg2d: Sum(rhs),rhsMax =  -2.42160456890871E-03  1.65933643737294E-01
 cg2d: Sum(rhs),rhsMax =  -2.42199048072849E-03  1.65936155554704E-01
 cg2d: Sum(rhs),rhsMax =  -2.42237682567331E-03  1.65938667115661E-01
 cg2d: Sum(rhs),rhsMax =  -2.42276360560184E-03  1.65941178429429E-01
 cg2d: Sum(rhs),rhsMax =  -2.42315082336115E-03  1.65943689505265E-01
 cg2d: Sum(rhs),rhsMax =  -2.42353848151842E-03  1.65946200352413E-01
 cg2d: Sum(rhs),rhsMax =  -2.42392658278684E-03  1.65948710980105E-01
 cg2d: Sum(rhs),rhsMax =  -2.42431512893580E-03  1.65951221397558E-01
 cg2d: Sum(rhs),rhsMax =  -2.42470412343376E-03  1.65953731613981E-01
 cg2d: Sum(rhs),rhsMax =  -2.42509356850442E-03  1.65956241638568E-01
 cg2d: Sum(rhs),rhsMax =  -2.42548346680421E-03  1.65958751480502E-01
 cg2d: Sum(rhs),rhsMax =  -2.42587382039084E-03  1.65961261148949E-01
 cg2d: Sum(rhs),rhsMax =  -2.42626463214395E-03  1.65963770653072E-01
 cg2d: Sum(rhs),rhsMax =  -2.42665590475260E-03  1.65966280002012E-01
 cg2d: Sum(rhs),rhsMax =  -2.42704764057493E-03  1.65968789204904E-01
 cg2d: Sum(rhs),rhsMax =  -2.42743984153313E-03  1.65971298270870E-01
 cg2d: Sum(rhs),rhsMax =  -2.42783251051172E-03  1.65973807209016E-01
 cg2d: Sum(rhs),rhsMax =  -2.42822565013121E-03  1.65976316028435E-01
 cg2d: Sum(rhs),rhsMax =  -2.42861926212168E-03  1.65978824738215E-01
 cg2d: Sum(rhs),rhsMax =  -2.42901334916338E-03  1.65981333347423E-01
 cg2d: Sum(rhs),rhsMax =  -2.42940791401099E-03  1.65983841865119E-01
 cg2d: Sum(rhs),rhsMax =  -2.42980295843396E-03  1.65986350300349E-01
(PID.TID 0000.0001)      cg2d_init_res =   1.08587186120612E-03
(PID.TID 0000.0001)      cg2d_iters(min,last) =      -1      76
(PID.TID 0000.0001)      cg2d_last_res =   8.96120588970619E-08
(PID.TID 0000.0001) // =======================================================
(PID.TID 0000.0001) // Begin MONITOR dynamic field statistics
(PID.TID 0000.0001) // =======================================================
(PID.TID 0000.0001) %MON time_tsnumber                =                  7848
(PID.TID 0000.0001) %MON time_secondsf                =   9.4176000000000E+06
(PID.TID 0000.0001) %MON dynstat_eta_max              =   1.9088074283224E-01
(PID.TID 0000.0001) %MON dynstat_eta_min              =  -7.2302450677365E-02
(PID.TID 0000.0001) %MON dynstat_eta_mean             =   2.0158958849165E-06
(PID.TID 0000.0001) %MON dynstat_eta_sd               =   7.8653821219441E-02
(PID.TID 0000.0001) %MON dynstat_eta_del2             =   2.4398245171913E-05
(PID.TID 0000.0001) %MON dynstat_uvel_max             =   1.2135700491017E-01
(PID.TID 0000.0001) %MON dynstat_uvel_min             =  -7.1855295176565E-02
(PID.TID 0000.0001) %MON dynstat_uvel_mean            =   4.2870182608484E-08
(PID.TID 0000.0001) %MON dynstat_uvel_sd              =   3.3576413303321E-02
(PID.TID 0000.0001) %MON dynstat_uvel_del2            =   6.1680807529892E-05
(PID.TID 0000.0001) %MON dynstat_vvel_max             =   7.5564567154191E-02
(PID.TID 0000.0001) %MON dynstat_vvel_min             =  -8.0644274673967E-02
(PID.TID 0000.0001) %MON dynstat_vvel_mean            =   1.2233487269772E-07
(PID.TID 0000.0001) %MON dynstat_vvel_sd              =   2.9590111356117E-02
(PID.TID 0000.0001) %MON dynstat_vvel_del2            =   4.1085218496941E-05
(PID.TID 0000.0001) %MON dynstat_wvel_max             =   1.8313895635220E-08
(PID.TID 0000.0001) %MON dynstat_wvel_min             =  -1.1087595170829E-08
(PID.TID 0000.0001) %MON dynstat_wvel_mean            =   4.1772811224898E-21
(PID.TID 0000.0001) %MON dynstat_wvel_sd              =   6.9065198211032E-09
(PID.TID 0000.0001) %MON dynstat_wvel_del2            =   3.2406157150771E-12
(PID.TID 0000.0001) %MON dynstat_theta_max            =   2.0000000000000E+01
(PID.TID 0000.0001) %MON dynstat_theta_min            =   2.0000000000000E+01
(PID.TID 0000.0001) %MON dynstat_theta_mean           =   2.0000000000000E+01
(PID.TID 0000.0001) %MON dynstat_theta_sd             =   3.8014036363165E-13
(PID.TID 0000.0001) %MON dynstat_theta_del2           =   0.0000000000000E+00
(PID.TID 0000.0001) %MON dynstat_salt_max             =   3.0000000000000E+01
(PID.TID 0000.0001) %MON dynstat_salt_min             =   3.0000000000000E+01
(PID.TID 0000.0001) %MON dynstat_salt_mean            =   2.9999999999999E+01
(PID.TID 0000.0001) %MON dynstat_salt_sd              =   5.5777604757167E-13
(PID.TID 0000.0001) %MON dynstat_salt_del2            =   0.0000000000000E+00
(PID.TID 0000.0001) %MON trAdv_CFL_u_max              =   7.2797761388450E-03
(PID.TID 0000.0001) %MON trAdv_CFL_v_max              =   4.8310438751680E-03
(PID.TID 0000.0001) %MON trAdv_CFL_w_max              =   4.8142262897049E-09
(PID.TID 0000.0001) %MON advcfl_uvel_max              =   7.2814202946101E-03
(PID.TID 0000.0001) %MON advcfl_vvel_max              =   4.8386564804380E-03
(PID.TID 0000.0001) %MON advcfl_wvel_max              =   8.7906699049054E-09
(PID.TID 0000.0001) %MON advcfl_W_hf_max              =   0.0000000000000E+00
(PID.TID 0000.0001) %MON pe_b_mean                    =   6.3425360909026E-06
(PID.TID 0000.0001) %MON ke_max                       =   7.3667800718724E-03
(PID.TID 0000.0001) %MON ke_mean                      =   9.8305936891173E-04
(PID.TID 0000.0001) %MON ke_vol                       =   6.8893493896486E+15
(PID.TID 0000.0001) %MON vort_r_min                   =  -1.1784771220214E-06
(PID.TID 0000.0001) %MON vort_r_max                   =   2.6734650081061E-06
(PID.TID 0000.0001) %MON vort_a_mean                  =   1.0600000000000E-04
(PID.TID 0000.0001) %MON vort_a_sd                    =   3.5484651603723E-06
(PID.TID 0000.0001) %MON vort_p_mean                  =   1.1652272308690E-04
(PID.TID 0000.0001) %MON vort_p_sd                    =   4.1780520475264E-05
(PID.TID 0000.0001) %MON surfExpan_theta_mean         =   8.3533298796586E-20
(PID.TID 0000.0001) %MON surfExpan_salt_mean          =   1.2530847470771E-19
(PID.TID 0000.0001) // =======================================================
(PID.TID 0000.0001) // End MONITOR dynamic field statistics
(PID.TID 0000.0001) // =======================================================
 cg2d: Sum(rhs),rhsMax =  -2.43019848511220E-03  1.65988858662142E-01
 cg2d: Sum(rhs),rhsMax =  -2.43059449632996E-03  1.65991366959523E-01
 cg2d: Sum(rhs),rhsMax =  -2.43099099462308E-03  1.65993875201501E-01
 cg2d: Sum(rhs),rhsMax =  -2.43138798212449E-03  1.65996383397069E-01
 cg2d: Sum(rhs),rhsMax =  -2.43178546105104E-03  1.65998891555211E-01
 cg2d: Sum(rhs),rhsMax =  -2.43218343348539E-03  1.66001399684894E-01
 cg2d: Sum(rhs),rhsMax =  -2.43258190234732E-03  1.66003907795081E-01
 cg2d: Sum(rhs),rhsMax =  -2.43298086935228E-03  1.66006415894715E-01
 cg2d: Sum(rhs),rhsMax =  -2.43338033650416E-03  1.66008923992729E-01
 cg2d: Sum(rhs),rhsMax =  -2.43378030664787E-03  1.66011432098040E-01
 cg2d: Sum(rhs),rhsMax =  -2.43418078156088E-03  1.66013940219561E-01
 cg2d: Sum(rhs),rhsMax =  -2.43458176371306E-03  1.66016448366181E-01
 cg2d: Sum(rhs),rhsMax =  -2.43498325489447E-03  1.66018956546784E-01
 cg2d: Sum(rhs),rhsMax =  -2.43538525793781E-03  1.66021464770241E-01
 cg2d: Sum(rhs),rhsMax =  -2.43578777426753E-03  1.66023973045405E-01
 cg2d: Sum(rhs),rhsMax =  -2.43619080594088E-03  1.66026481381124E-01
 cg2d: Sum(rhs),rhsMax =  -2.43659435566995E-03  1.66028989786224E-01
 cg2d: Sum(rhs),rhsMax =  -2.43699842520623E-03  1.66031498269528E-01
 cg2d: Sum(rhs),rhsMax =  -2.43740301667607E-03  1.66034006839838E-01
 cg2d: Sum(rhs),rhsMax =  -2.43780813185843E-03  1.66036515505949E-01
 cg2d: Sum(rhs),rhsMax =  -2.43821377308908E-03  1.66039024276640E-01
 cg2d: Sum(rhs),rhsMax =  -2.43861994231325E-03  1.66041533160679E-01
 cg2d: Sum(rhs),rhsMax =  -2.43902664137876E-03  1.66044042166818E-01
 cg2d: Sum(rhs),rhsMax =  -2.43943387248816E-03  1.66046551303802E-01
 cg2d: Sum(rhs),rhsMax =  -2.43984163732513E-03  1.66049060580357E-01
 cg2d: Sum(rhs),rhsMax =  -2.44024993820601E-03  1.66051570005199E-01
 cg2d: Sum(rhs),rhsMax =  -2.44065877663421E-03  1.66054079587029E-01
 cg2d: Sum(rhs),rhsMax =  -2.44106815477172E-03  1.66056589334542E-01
 cg2d: Sum(rhs),rhsMax =  -2.44147807447805E-03  1.66059099256412E-01
 cg2d: Sum(rhs),rhsMax =  -2.44188853751349E-03  1.66061609361300E-01
 cg2d: Sum(rhs),rhsMax =  -2.44229954578921E-03  1.66064119657863E-01
 cg2d: Sum(rhs),rhsMax =  -2.44271110097349E-03  1.66066630154737E-01
 cg2d: Sum(rhs),rhsMax =  -2.44312320543720E-03  1.66069140860546E-01
 cg2d: Sum(rhs),rhsMax =  -2.44353586049797E-03  1.66071651783904E-01
 cg2d: Sum(rhs),rhsMax =  -2.44394906812334E-03  1.66074162933409E-01
 cg2d: Sum(rhs),rhsMax =  -2.44436282941121E-03  1.66076674317647E-01
 cg2d: Sum(rhs),rhsMax =  -2.44477714730342E-03  1.66079185945195E-01
 cg2d: Sum(rhs),rhsMax =  -2.44519202224929E-03  1.66081697824609E-01
 cg2d: Sum(rhs),rhsMax =  -2.44560745682547E-03  1.66084209964435E-01
 cg2d: Sum(rhs),rhsMax =  -2.44602345222060E-03  1.66086722373211E-01
 cg2d: Sum(rhs),rhsMax =  -2.44644001048470E-03  1.66089235059461E-01
 cg2d: Sum(rhs),rhsMax =  -2.44685713283311E-03  1.66091748031683E-01
 cg2d: Sum(rhs),rhsMax =  -2.44727482122514E-03  1.66094261298380E-01
 cg2d: Sum(rhs),rhsMax =  -2.44769307741983E-03  1.66096774868033E-01
 cg2d: Sum(rhs),rhsMax =  -2.44811190271224E-03  1.66099288749108E-01
 cg2d: Sum(rhs),rhsMax =  -2.44853129862963E-03  1.66101802950061E-01
 cg2d: Sum(rhs),rhsMax =  -2.44895126697459E-03  1.66104317479336E-01
 cg2d: Sum(rhs),rhsMax =  -2.44937180880555E-03  1.66106832345363E-01
 cg2d: Sum(rhs),rhsMax =  -2.44979292604763E-03  1.66109347556555E-01
 cg2d: Sum(rhs),rhsMax =  -2.45021462015273E-03  1.66111863121316E-01
 cg2d: Sum(rhs),rhsMax =  -2.45063689233565E-03  1.66114379048038E-01
 cg2d: Sum(rhs),rhsMax =  -2.45105974411075E-03  1.66116895345094E-01
 cg2d: Sum(rhs),rhsMax =  -2.45148317698361E-03  1.66119412020850E-01
 cg2d: Sum(rhs),rhsMax =  -2.45190719230276E-03  1.66121929083653E-01
 cg2d: Sum(rhs),rhsMax =  -2.45233179170756E-03  1.66124446541842E-01
 cg2d: Sum(rhs),rhsMax =  -2.45275697627523E-03  1.66126964403742E-01
 cg2d: Sum(rhs),rhsMax =  -2.45318274732511E-03  1.66129482677659E-01
 cg2d: Sum(rhs),rhsMax =  -2.45360910606704E-03  1.66132001371894E-01
 cg2d: Sum(rhs),rhsMax =  -2.45403605449927E-03  1.66134520494728E-01
 cg2d: Sum(rhs),rhsMax =  -2.45446359336811E-03  1.66137040054433E-01
 cg2d: Sum(rhs),rhsMax =  -2.45489172382663E-03  1.66139560059266E-01
 cg2d: Sum(rhs),rhsMax =  -2.45532044748885E-03  1.66142080517469E-01
 cg2d: Sum(rhs),rhsMax =  -2.45574976520988E-03  1.66144601437275E-01
 cg2d: Sum(rhs),rhsMax =  -2.45617967823736E-03  1.66147122826898E-01
 cg2d: Sum(rhs),rhsMax =  -2.45661018803114E-03  1.66149644694543E-01
 cg2d: Sum(rhs),rhsMax =  -2.45704129539867E-03  1.66152167048401E-01
 cg2d: Sum(rhs),rhsMax =  -2.45747300202176E-03  1.66154689896648E-01
 cg2d: Sum(rhs),rhsMax =  -2.45790530830518E-03  1.66157213247446E-01
 cg2d: Sum(rhs),rhsMax =  -2.45833821588374E-03  1.66159737108950E-01
 cg2d: Sum(rhs),rhsMax =  -2.45877172573168E-03  1.66162261489291E-01
 cg2d: Sum(rhs),rhsMax =  -2.45920583843924E-03  1.66164786396594E-01
 cg2d: Sum(rhs),rhsMax =  -2.45964055553370E-03  1.66167311838971E-01
(PID.TID 0000.0001)      cg2d_init_res =   1.07266015366979E-03
(PID.TID 0000.0001)      cg2d_iters(min,last) =      -1      76
(PID.TID 0000.0001)      cg2d_last_res =   9.02678511602521E-08
(PID.TID 0000.0001) // =======================================================
(PID.TID 0000.0001) // Begin MONITOR dynamic field statistics
(PID.TID 0000.0001) // =======================================================
(PID.TID 0000.0001) %MON time_tsnumber                =                  7920
(PID.TID 0000.0001) %MON time_secondsf                =   9.5040000000000E+06
(PID.TID 0000.0001) %MON dynstat_eta_max              =   1.9238809806084E-01
(PID.TID 0000.0001) %MON dynstat_eta_min              =  -7.2763405069090E-02
(PID.TID 0000.0001) %MON dynstat_eta_mean             =   2.0429047227326E-06
(PID.TID 0000.0001) %MON dynstat_eta_sd               =   7.9194063521599E-02
(PID.TID 0000.0001) %MON dynstat_eta_del2             =   2.4474601270054E-05
(PID.TID 0000.0001) %MON dynstat_uvel_max             =   1.2171208546471E-01
(PID.TID 0000.0001) %MON dynstat_uvel_min             =  -7.2346725375199E-02
(PID.TID 0000.0001) %MON dynstat_uvel_mean            =   3.5157855552164E-08
(PID.TID 0000.0001) %MON dynstat_uvel_sd              =   3.3766116265239E-02
(PID.TID 0000.0001) %MON dynstat_uvel_del2            =   6.1884126487606E-05
(PID.TID 0000.0001) %MON dynstat_vvel_max             =   7.5056311042305E-02
(PID.TID 0000.0001) %MON dynstat_vvel_min             =  -8.1288500203904E-02
(PID.TID 0000.0001) %MON dynstat_vvel_mean            =   1.1968006753047E-07
(PID.TID 0000.0001) %MON dynstat_vvel_sd              =   2.9785843950680E-02
(PID.TID 0000.0001) %MON dynstat_vvel_del2            =   4.0913622864605E-05
(PID.TID 0000.0001) %MON dynstat_wvel_max             =   1.8282114676549E-08
(PID.TID 0000.0001) %MON dynstat_wvel_min             =  -1.0828398100566E-08
(PID.TID 0000.0001) %MON dynstat_wvel_mean            =   2.1872839776430E-21
(PID.TID 0000.0001) %MON dynstat_wvel_sd              =   6.8957157608558E-09
(PID.TID 0000.0001) %MON dynstat_wvel_del2            =   3.2238403954924E-12
(PID.TID 0000.0001) %MON dynstat_theta_max            =   2.0000000000000E+01
(PID.TID 0000.0001) %MON dynstat_theta_min            =   2.0000000000000E+01
(PID.TID 0000.0001) %MON dynstat_theta_mean           =   2.0000000000000E+01
(PID.TID 0000.0001) %MON dynstat_theta_sd             =   3.8014036363165E-13
(PID.TID 0000.0001) %MON dynstat_theta_del2           =   0.0000000000000E+00
(PID.TID 0000.0001) %MON dynstat_salt_max             =   3.0000000000000E+01
(PID.TID 0000.0001) %MON dynstat_salt_min             =   3.0000000000000E+01
(PID.TID 0000.0001) %MON dynstat_salt_mean            =   2.9999999999999E+01
(PID.TID 0000.0001) %MON dynstat_salt_sd              =   5.5777604757167E-13
(PID.TID 0000.0001) %MON dynstat_salt_del2            =   0.0000000000000E+00
(PID.TID 0000.0001) %MON trAdv_CFL_u_max              =   7.3010991739280E-03
(PID.TID 0000.0001) %MON trAdv_CFL_v_max              =   4.8696312071432E-03
(PID.TID 0000.0001) %MON trAdv_CFL_w_max              =   4.8058400395228E-09
(PID.TID 0000.0001) %MON advcfl_uvel_max              =   7.3027251278829E-03
(PID.TID 0000.0001) %MON advcfl_vvel_max              =   4.8773100122343E-03
(PID.TID 0000.0001) %MON advcfl_wvel_max              =   8.7754150447436E-09
(PID.TID 0000.0001) %MON advcfl_W_hf_max              =   0.0000000000000E+00
(PID.TID 0000.0001) %MON pe_b_mean                    =   6.4299641118990E-06
(PID.TID 0000.0001) %MON ke_max                       =   7.4124610636479E-03
(PID.TID 0000.0001) %MON ke_mean                      =   9.9503349997067E-04
(PID.TID 0000.0001) %MON ke_vol                       =   6.8893493896486E+15
(PID.TID 0000.0001) %MON vort_r_min                   =  -1.1804008838884E-06
(PID.TID 0000.0001) %MON vort_r_max                   =   2.6793673757790E-06
(PID.TID 0000.0001) %MON vort_a_mean                  =   1.0600000000000E-04
(PID.TID 0000.0001) %MON vort_a_sd                    =   3.5486092332690E-06
(PID.TID 0000.0001) %MON vort_p_mean                  =   1.1652272308690E-04
(PID.TID 0000.0001) %MON vort_p_sd                    =   4.1780777743976E-05
(PID.TID 0000.0001) %MON surfExpan_theta_mean         =   4.3775432661480E-20
(PID.TID 0000.0001) %MON surfExpan_salt_mean          =   6.5654938276162E-20
(PID.TID 0000.0001) // =======================================================
(PID.TID 0000.0001) // End MONITOR dynamic field statistics
(PID.TID 0000.0001) // =======================================================
 cg2d: Sum(rhs),rhsMax =  -2.46007587811941E-03  1.66169837824514E-01
 cg2d: Sum(rhs),rhsMax =  -2.46051180693415E-03  1.66172364361310E-01
 cg2d: Sum(rhs),rhsMax =  -2.46094834296118E-03  1.66174891457425E-01
 cg2d: Sum(rhs),rhsMax =  -2.46138548716686E-03  1.66177419120917E-01
 cg2d: Sum(rhs),rhsMax =  -2.46182324068350E-03  1.66179947359827E-01
 cg2d: Sum(rhs),rhsMax =  -2.46226160409586E-03  1.66182476182185E-01
 cg2d: Sum(rhs),rhsMax =  -2.46270057856907E-03  1.66185005596005E-01
 cg2d: Sum(rhs),rhsMax =  -2.46314016489542E-03  1.66187535609290E-01
 cg2d: Sum(rhs),rhsMax =  -2.46358036410085E-03  1.66190066230025E-01
 cg2d: Sum(rhs),rhsMax =  -2.46402117670310E-03  1.66192597466188E-01
 cg2d: Sum(rhs),rhsMax =  -2.46446260349342E-03  1.66195129325737E-01
 cg2d: Sum(rhs),rhsMax =  -2.46490464544034E-03  1.66197661816623E-01
 cg2d: Sum(rhs),rhsMax =  -2.46534730324999E-03  1.66200194946777E-01
 cg2d: Sum(rhs),rhsMax =  -2.46579057771780E-03  1.66202728724122E-01
 cg2d: Sum(rhs),rhsMax =  -2.46623446975465E-03  1.66205263156562E-01
 cg2d: Sum(rhs),rhsMax =  -2.46667897985762E-03  1.66207798251988E-01
 cg2d: Sum(rhs),rhsMax =  -2.46712410834750E-03  1.66210334018285E-01
 cg2d: Sum(rhs),rhsMax =  -2.46756985634609E-03  1.66212870463313E-01
 cg2d: Sum(rhs),rhsMax =  -2.46801622454715E-03  1.66215407594927E-01
 cg2d: Sum(rhs),rhsMax =  -2.46846321339275E-03  1.66217945420966E-01
 cg2d: Sum(rhs),rhsMax =  -2.46891082347872E-03  1.66220483949253E-01
 cg2d: Sum(rhs),rhsMax =  -2.46935905542301E-03  1.66223023187598E-01
 cg2d: Sum(rhs),rhsMax =  -2.46980790974805E-03  1.66225563143801E-01
 cg2d: Sum(rhs),rhsMax =  -2.47025738722868E-03  1.66228103825643E-01
 cg2d: Sum(rhs),rhsMax =  -2.47070748793500E-03  1.66230645240896E-01
 cg2d: Sum(rhs),rhsMax =  -2.47115821254350E-03  1.66233187397311E-01
 cg2d: Sum(rhs),rhsMax =  -2.47160956179544E-03  1.66235730302637E-01
 cg2d: Sum(rhs),rhsMax =  -2.47206153599296E-03  1.66238273964599E-01
 cg2d: Sum(rhs),rhsMax =  -2.47251413535028E-03  1.66240818390912E-01
 cg2d: Sum(rhs),rhsMax =  -2.47296736036899E-03  1.66243363589277E-01
 cg2d: Sum(rhs),rhsMax =  -2.47342121155061E-03  1.66245909567380E-01
 cg2d: Sum(rhs),rhsMax =  -2.47387568941036E-03  1.66248456332898E-01
 cg2d: Sum(rhs),rhsMax =  -2.47433079421281E-03  1.66251003893490E-01
 cg2d: Sum(rhs),rhsMax =  -2.47478652578536E-03  1.66253552256797E-01
 cg2d: Sum(rhs),rhsMax =  -2.47524288496779E-03  1.66256101430452E-01
 cg2d: Sum(rhs),rhsMax =  -2.47569987233792E-03  1.66258651422078E-01
 cg2d: Sum(rhs),rhsMax =  -2.47615748723593E-03  1.66261202239274E-01
 cg2d: Sum(rhs),rhsMax =  -2.47661573076310E-03  1.66263753889634E-01
 cg2d: Sum(rhs),rhsMax =  -2.47707460266269E-03  1.66266306380732E-01
 cg2d: Sum(rhs),rhsMax =  -2.47753410326301E-03  1.66268859720133E-01
 cg2d: Sum(rhs),rhsMax =  -2.47799423274161E-03  1.66271413915382E-01
 cg2d: Sum(rhs),rhsMax =  -2.47845499137719E-03  1.66273968974019E-01
 cg2d: Sum(rhs),rhsMax =  -2.47891637943340E-03  1.66276524903559E-01
 cg2d: Sum(rhs),rhsMax =  -2.47937839647789E-03  1.66279081711515E-01
 cg2d: Sum(rhs),rhsMax =  -2.47984104289128E-03  1.66281639405376E-01
 cg2d: Sum(rhs),rhsMax =  -2.48030431923087E-03  1.66284197992625E-01
 cg2d: Sum(rhs),rhsMax =  -2.48076822456232E-03  1.66286757480718E-01
 cg2d: Sum(rhs),rhsMax =  -2.48123276002317E-03  1.66289317877117E-01
 cg2d: Sum(rhs),rhsMax =  -2.48169792499514E-03  1.66291879189253E-01
 cg2d: Sum(rhs),rhsMax =  -2.48216371946959E-03  1.66294441424554E-01
 cg2d: Sum(rhs),rhsMax =  -2.48263014344483E-03  1.66297004590425E-01
 cg2d: Sum(rhs),rhsMax =  -2.48309719736560E-03  1.66299568694264E-01
 cg2d: Sum(rhs),rhsMax =  -2.48356488064209E-03  1.66302133743452E-01
 cg2d: Sum(rhs),rhsMax =  -2.48403319321282E-03  1.66304699745352E-01
 cg2d: Sum(rhs),rhsMax =  -2.48450213535314E-03  1.66307266707324E-01
 cg2d: Sum(rhs),rhsMax =  -2.48497170625343E-03  1.66309834636701E-01
 cg2d: Sum(rhs),rhsMax =  -2.48544190657158E-03  1.66312403540814E-01
 cg2d: Sum(rhs),rhsMax =  -2.48591273546172E-03  1.66314973426969E-01
 cg2d: Sum(rhs),rhsMax =  -2.48638419302599E-03  1.66317544302465E-01
 cg2d: Sum(rhs),rhsMax =  -2.48685627930123E-03  1.66320116174591E-01
 cg2d: Sum(rhs),rhsMax =  -2.48732899388917E-03  1.66322689050607E-01
 cg2d: Sum(rhs),rhsMax =  -2.48780233628804E-03  1.66325262937770E-01
 cg2d: Sum(rhs),rhsMax =  -2.48827630643891E-03  1.66327837843326E-01
 cg2d: Sum(rhs),rhsMax =  -2.48875090420987E-03  1.66330413774495E-01
 cg2d: Sum(rhs),rhsMax =  -2.48922612907979E-03  1.66332990738494E-01
 cg2d: Sum(rhs),rhsMax =  -2.48970198083369E-03  1.66335568742518E-01
 cg2d: Sum(rhs),rhsMax =  -2.49017845908442E-03  1.66338147793759E-01
 cg2d: Sum(rhs),rhsMax =  -2.49065556355425E-03  1.66340727899375E-01
 cg2d: Sum(rhs),rhsMax =  -2.49113329340151E-03  1.66343309066533E-01
 cg2d: Sum(rhs),rhsMax =  -2.49161164872415E-03  1.66345891302371E-01
 cg2d: Sum(rhs),rhsMax =  -2.49209062884443E-03  1.66348474614015E-01
 cg2d: Sum(rhs),rhsMax =  -2.49257023368937E-03  1.66351059008583E-01
(PID.TID 0000.0001)      cg2d_init_res =   1.05974273723107E-03
(PID.TID 0000.0001)      cg2d_iters(min,last) =      -1      76
(PID.TID 0000.0001)      cg2d_last_res =   9.21700869189369E-08
(PID.TID 0000.0001) // =======================================================
(PID.TID 0000.0001) // Begin MONITOR dynamic field statistics
(PID.TID 0000.0001) // =======================================================
(PID.TID 0000.0001) %MON time_tsnumber                =                  7992
(PID.TID 0000.0001) %MON time_secondsf                =   9.5904000000000E+06
(PID.TID 0000.0001) %MON dynstat_eta_max              =   1.9389490315583E-01
(PID.TID 0000.0001) %MON dynstat_eta_min              =  -7.3228541141205E-02
(PID.TID 0000.0001) %MON dynstat_eta_mean             =   2.0725776135375E-06
(PID.TID 0000.0001) %MON dynstat_eta_sd               =   7.9736639468400E-02
(PID.TID 0000.0001) %MON dynstat_eta_del2             =   2.4548195829343E-05
(PID.TID 0000.0001) %MON dynstat_uvel_max             =   1.2204230713830E-01
(PID.TID 0000.0001) %MON dynstat_uvel_min             =  -7.2808684673312E-02
(PID.TID 0000.0001) %MON dynstat_uvel_mean            =   2.6740811592159E-08
(PID.TID 0000.0001) %MON dynstat_uvel_sd              =   3.3954782948638E-02
(PID.TID 0000.0001) %MON dynstat_uvel_del2            =   6.2073312271704E-05
(PID.TID 0000.0001) %MON dynstat_vvel_max             =   7.4604696056871E-02
(PID.TID 0000.0001) %MON dynstat_vvel_min             =  -8.1944022762852E-02
(PID.TID 0000.0001) %MON dynstat_vvel_mean            =   1.1786360509531E-07
(PID.TID 0000.0001) %MON dynstat_vvel_sd              =   2.9983764320745E-02
(PID.TID 0000.0001) %MON dynstat_vvel_del2            =   4.0755570637679E-05
(PID.TID 0000.0001) %MON dynstat_wvel_max             =   1.8258935081249E-08
(PID.TID 0000.0001) %MON dynstat_wvel_min             =  -1.0489618743304E-08
(PID.TID 0000.0001) %MON dynstat_wvel_mean            =   3.7858697194477E-21
(PID.TID 0000.0001) %MON dynstat_wvel_sd              =   6.8849170026721E-09
(PID.TID 0000.0001) %MON dynstat_wvel_del2            =   3.2064971840017E-12
(PID.TID 0000.0001) %MON dynstat_theta_max            =   2.0000000000000E+01
(PID.TID 0000.0001) %MON dynstat_theta_min            =   2.0000000000000E+01
(PID.TID 0000.0001) %MON dynstat_theta_mean           =   2.0000000000000E+01
(PID.TID 0000.0001) %MON dynstat_theta_sd             =   3.8014036363165E-13
(PID.TID 0000.0001) %MON dynstat_theta_del2           =   0.0000000000000E+00
(PID.TID 0000.0001) %MON dynstat_salt_max             =   3.0000000000000E+01
(PID.TID 0000.0001) %MON dynstat_salt_min             =   3.0000000000000E+01
(PID.TID 0000.0001) %MON dynstat_salt_mean            =   2.9999999999999E+01
(PID.TID 0000.0001) %MON dynstat_salt_sd              =   5.5777604757167E-13
(PID.TID 0000.0001) %MON dynstat_salt_del2            =   0.0000000000000E+00
(PID.TID 0000.0001) %MON trAdv_CFL_u_max              =   7.3209281601297E-03
(PID.TID 0000.0001) %MON trAdv_CFL_v_max              =   4.9088958241162E-03
(PID.TID 0000.0001) %MON trAdv_CFL_w_max              =   4.7997164523239E-09
(PID.TID 0000.0001) %MON advcfl_uvel_max              =   7.3225384282978E-03
(PID.TID 0000.0001) %MON advcfl_vvel_max              =   4.9166413657711E-03
(PID.TID 0000.0001) %MON advcfl_wvel_max              =   8.7642888389993E-09
(PID.TID 0000.0001) %MON advcfl_W_hf_max              =   0.0000000000000E+00
(PID.TID 0000.0001) %MON pe_b_mean                    =   6.5183721260515E-06
(PID.TID 0000.0001) %MON ke_max                       =   7.4550641454265E-03
(PID.TID 0000.0001) %MON ke_mean                      =   1.0071104122842E-03
(PID.TID 0000.0001) %MON ke_vol                       =   6.8893493896486E+15
(PID.TID 0000.0001) %MON vort_r_min                   =  -1.1813252184002E-06
(PID.TID 0000.0001) %MON vort_r_max                   =   2.6848798200715E-06
(PID.TID 0000.0001) %MON vort_a_mean                  =   1.0600000000000E-04
(PID.TID 0000.0001) %MON vort_a_sd                    =   3.5487507829983E-06
(PID.TID 0000.0001) %MON vort_p_mean                  =   1.1652272308690E-04
(PID.TID 0000.0001) %MON vort_p_sd                    =   4.1781030431862E-05
(PID.TID 0000.0001) %MON surfExpan_theta_mean         =   7.5698696693709E-20
(PID.TID 0000.0001) %MON surfExpan_salt_mean          =   1.1354678185348E-19
(PID.TID 0000.0001) // =======================================================
(PID.TID 0000.0001) // End MONITOR dynamic field statistics
(PID.TID 0000.0001) // =======================================================
 cg2d: Sum(rhs),rhsMax =  -2.49305046219360E-03  1.66353644493168E-01
 cg2d: Sum(rhs),rhsMax =  -2.49353131448009E-03  1.66356231074862E-01
 cg2d: Sum(rhs),rhsMax =  -2.49401278969816E-03  1.66358818760733E-01
 cg2d: Sum(rhs),rhsMax =  -2.49449488701226E-03  1.66361407557832E-01
 cg2d: Sum(rhs),rhsMax =  -2.49497760640083E-03  1.66363997473215E-01
 cg2d: Sum(rhs),rhsMax =  -2.49546094733282E-03  1.66366588513901E-01
 cg2d: Sum(rhs),rhsMax =  -2.49594490864032E-03  1.66369180686907E-01
 cg2d: Sum(rhs),rhsMax =  -2.49642949027160E-03  1.66371773999228E-01
 cg2d: Sum(rhs),rhsMax =  -2.49691469130102E-03  1.66374368457858E-01
 cg2d: Sum(rhs),rhsMax =  -2.49740051148832E-03  1.66376964069768E-01
 cg2d: Sum(rhs),rhsMax =  -2.49788694944946E-03  1.66379560841907E-01
 cg2d: Sum(rhs),rhsMax =  -2.49837400501553E-03  1.66382158781222E-01
 cg2d: Sum(rhs),rhsMax =  -2.49886167769018E-03  1.66384757894648E-01
 cg2d: Sum(rhs),rhsMax =  -2.49934996607372E-03  1.66387358189093E-01
 cg2d: Sum(rhs),rhsMax =  -2.49983887010090E-03  1.66389959671455E-01
 cg2d: Sum(rhs),rhsMax =  -2.50032838882704E-03  1.66392562348624E-01
 cg2d: Sum(rhs),rhsMax =  -2.50081852123614E-03  1.66395166227475E-01
 cg2d: Sum(rhs),rhsMax =  -2.50130926655356E-03  1.66397771314857E-01
 cg2d: Sum(rhs),rhsMax =  -2.50180062386536E-03  1.66400377617618E-01
 cg2d: Sum(rhs),rhsMax =  -2.50229259266890E-03  1.66402985142591E-01
 cg2d: Sum(rhs),rhsMax =  -2.50278517223129E-03  1.66405593896580E-01
 cg2d: Sum(rhs),rhsMax =  -2.50327836092416E-03  1.66408203886394E-01
 cg2d: Sum(rhs),rhsMax =  -2.50377215862528E-03  1.66410815118815E-01
 cg2d: Sum(rhs),rhsMax =  -2.50426656403119E-03  1.66413427600611E-01
 cg2d: Sum(rhs),rhsMax =  -2.50476157610126E-03  1.66416041338549E-01
 cg2d: Sum(rhs),rhsMax =  -2.50525719421437E-03  1.66418656339358E-01
 cg2d: Sum(rhs),rhsMax =  -2.50575341749685E-03  1.66421272609775E-01
 cg2d: Sum(rhs),rhsMax =  -2.50625024399506E-03  1.66423890156516E-01
 cg2d: Sum(rhs),rhsMax =  -2.50674767392600E-03  1.66426508986275E-01
 cg2d: Sum(rhs),rhsMax =  -2.50724570587892E-03  1.66429129105739E-01
 cg2d: Sum(rhs),rhsMax =  -2.50774185688330E-03  1.66431915226350E-01
 cg2d: Sum(rhs),rhsMax =  -2.50823376993599E-03  1.66435023604633E-01
 cg2d: Sum(rhs),rhsMax =  -2.50872627508961E-03  1.66438133546174E-01
 cg2d: Sum(rhs),rhsMax =  -2.50921937098527E-03  1.66441245058453E-01
 cg2d: Sum(rhs),rhsMax =  -2.50971305729716E-03  1.66444358148931E-01
 cg2d: Sum(rhs),rhsMax =  -2.51020733236569E-03  1.66447472825049E-01
 cg2d: Sum(rhs),rhsMax =  -2.51070219480391E-03  1.66450589094244E-01
 cg2d: Sum(rhs),rhsMax =  -2.51119764365138E-03  1.66453706963923E-01
 cg2d: Sum(rhs),rhsMax =  -2.51169367779875E-03  1.66456826441493E-01
 cg2d: Sum(rhs),rhsMax =  -2.51219029561385E-03  1.66459947534335E-01
 cg2d: Sum(rhs),rhsMax =  -2.51268749658849E-03  1.66463070249821E-01
 cg2d: Sum(rhs),rhsMax =  -2.51318527897252E-03  1.66466194595299E-01
 cg2d: Sum(rhs),rhsMax =  -2.51368364103469E-03  1.66469320578116E-01
 cg2d: Sum(rhs),rhsMax =  -2.51418258250153E-03  1.66472448205586E-01
 cg2d: Sum(rhs),rhsMax =  -2.51468210103285E-03  1.66475577485025E-01
 cg2d: Sum(rhs),rhsMax =  -2.51518219610139E-03  1.66478708423714E-01
 cg2d: Sum(rhs),rhsMax =  -2.51568286565880E-03  1.66481841028941E-01
 cg2d: Sum(rhs),rhsMax =  -2.51618410905000E-03  1.66484975307960E-01
 cg2d: Sum(rhs),rhsMax =  -2.51668592448510E-03  1.66488111268023E-01
 cg2d: Sum(rhs),rhsMax =  -2.51718831043301E-03  1.66491248916356E-01
 cg2d: Sum(rhs),rhsMax =  -2.51769126548190E-03  1.66494388260169E-01
 cg2d: Sum(rhs),rhsMax =  -2.51819478865325E-03  1.66497529306673E-01
 cg2d: Sum(rhs),rhsMax =  -2.51869887808341E-03  1.66500672063046E-01
 cg2d: Sum(rhs),rhsMax =  -2.51920353218974E-03  1.66503816536456E-01
 cg2d: Sum(rhs),rhsMax =  -2.51970874966580E-03  1.66506962734059E-01
 cg2d: Sum(rhs),rhsMax =  -2.52021452913222E-03  1.66510110662985E-01
 cg2d: Sum(rhs),rhsMax =  -2.52072086879344E-03  1.66513260330368E-01
 cg2d: Sum(rhs),rhsMax =  -2.52122776710478E-03  1.66516411743305E-01
 cg2d: Sum(rhs),rhsMax =  -2.52173522270708E-03  1.66519564908893E-01
 cg2d: Sum(rhs),rhsMax =  -2.52224323388973E-03  1.66522719834201E-01
 cg2d: Sum(rhs),rhsMax =  -2.52275179914356E-03  1.66525876526293E-01
 cg2d: Sum(rhs),rhsMax =  -2.52326091663744E-03  1.66529034992217E-01
 cg2d: Sum(rhs),rhsMax =  -2.52377058526730E-03  1.66532195238996E-01
 cg2d: Sum(rhs),rhsMax =  -2.52428080263023E-03  1.66535357273646E-01
 cg2d: Sum(rhs),rhsMax =  -2.52479156752122E-03  1.66538521103162E-01
 cg2d: Sum(rhs),rhsMax =  -2.52530287824805E-03  1.66541686734528E-01
 cg2d: Sum(rhs),rhsMax =  -2.52581473333099E-03  1.66544854174711E-01
 cg2d: Sum(rhs),rhsMax =  -2.52632713031808E-03  1.66548023430660E-01
 cg2d: Sum(rhs),rhsMax =  -2.52684006823917E-03  1.66551194509314E-01
 cg2d: Sum(rhs),rhsMax =  -2.52735354527280E-03  1.66554367417588E-01
 cg2d: Sum(rhs),rhsMax =  -2.52786755909178E-03  1.66557542162388E-01
 cg2d: Sum(rhs),rhsMax =  -2.52838210840243E-03  1.66560718750602E-01
(PID.TID 0000.0001)      cg2d_init_res =   1.04695544364343E-03
(PID.TID 0000.0001)      cg2d_iters(min,last) =      -1      76
(PID.TID 0000.0001)      cg2d_last_res =   9.55570994913599E-08
(PID.TID 0000.0001) // =======================================================
(PID.TID 0000.0001) // Begin MONITOR dynamic field statistics
(PID.TID 0000.0001) // =======================================================
(PID.TID 0000.0001) %MON time_tsnumber                =                  8064
(PID.TID 0000.0001) %MON time_secondsf                =   9.6768000000000E+06
(PID.TID 0000.0001) %MON dynstat_eta_max              =   1.9540106716186E-01
(PID.TID 0000.0001) %MON dynstat_eta_min              =  -7.3696714859248E-02
(PID.TID 0000.0001) %MON dynstat_eta_mean             =   2.1050356806932E-06
(PID.TID 0000.0001) %MON dynstat_eta_sd               =   8.0281513329235E-02
(PID.TID 0000.0001) %MON dynstat_eta_del2             =   2.4619230959553E-05
(PID.TID 0000.0001) %MON dynstat_uvel_max             =   1.2235110251765E-01
(PID.TID 0000.0001) %MON dynstat_uvel_min             =  -7.3245666288637E-02
(PID.TID 0000.0001) %MON dynstat_uvel_mean            =   1.7865245469657E-08
(PID.TID 0000.0001) %MON dynstat_uvel_sd              =   3.4142801396731E-02
(PID.TID 0000.0001) %MON dynstat_uvel_del2            =   6.2248981810052E-05
(PID.TID 0000.0001) %MON dynstat_vvel_max             =   7.4338629986883E-02
(PID.TID 0000.0001) %MON dynstat_vvel_min             =  -8.2610286083108E-02
(PID.TID 0000.0001) %MON dynstat_vvel_mean            =   1.1688284442111E-07
(PID.TID 0000.0001) %MON dynstat_vvel_sd              =   3.0183442187534E-02
(PID.TID 0000.0001) %MON dynstat_vvel_del2            =   4.0611300906050E-05
(PID.TID 0000.0001) %MON dynstat_wvel_max             =   1.8243726165092E-08
(PID.TID 0000.0001) %MON dynstat_wvel_min             =  -1.0113802785054E-08
(PID.TID 0000.0001) %MON dynstat_wvel_mean            =   1.0148634525346E-21
(PID.TID 0000.0001) %MON dynstat_wvel_sd              =   6.8740212825517E-09
(PID.TID 0000.0001) %MON dynstat_wvel_del2            =   3.1883583429939E-12
(PID.TID 0000.0001) %MON dynstat_theta_max            =   2.0000000000000E+01
(PID.TID 0000.0001) %MON dynstat_theta_min            =   2.0000000000000E+01
(PID.TID 0000.0001) %MON dynstat_theta_mean           =   2.0000000000000E+01
(PID.TID 0000.0001) %MON dynstat_theta_sd             =   3.8014036363165E-13
(PID.TID 0000.0001) %MON dynstat_theta_del2           =   0.0000000000000E+00
(PID.TID 0000.0001) %MON dynstat_salt_max             =   3.0000000000000E+01
(PID.TID 0000.0001) %MON dynstat_salt_min             =   3.0000000000000E+01
(PID.TID 0000.0001) %MON dynstat_salt_mean            =   2.9999999999999E+01
(PID.TID 0000.0001) %MON dynstat_salt_sd              =   5.5777604757167E-13
(PID.TID 0000.0001) %MON dynstat_salt_del2            =   0.0000000000000E+00
(PID.TID 0000.0001) %MON trAdv_CFL_u_max              =   7.3394688844502E-03
(PID.TID 0000.0001) %MON trAdv_CFL_v_max              =   4.9488044127068E-03
(PID.TID 0000.0001) %MON trAdv_CFL_w_max              =   4.7956910046755E-09
(PID.TID 0000.0001) %MON advcfl_uvel_max              =   7.3410661510590E-03
(PID.TID 0000.0001) %MON advcfl_vvel_max              =   4.9566171649865E-03
(PID.TID 0000.0001) %MON advcfl_wvel_max              =   8.7569885592442E-09
(PID.TID 0000.0001) %MON advcfl_W_hf_max              =   0.0000000000000E+00
(PID.TID 0000.0001) %MON pe_b_mean                    =   6.6077620403594E-06
(PID.TID 0000.0001) %MON ke_max                       =   7.4949691233885E-03
(PID.TID 0000.0001) %MON ke_mean                      =   1.0192910618457E-03
(PID.TID 0000.0001) %MON ke_vol                       =   6.8893493896486E+15
(PID.TID 0000.0001) %MON vort_r_min                   =  -1.1812174756026E-06
(PID.TID 0000.0001) %MON vort_r_max                   =   2.6900776920107E-06
(PID.TID 0000.0001) %MON vort_a_mean                  =   1.0600000000000E-04
(PID.TID 0000.0001) %MON vort_a_sd                    =   3.5488903527632E-06
(PID.TID 0000.0001) %MON vort_p_mean                  =   1.1652272308690E-04
(PID.TID 0000.0001) %MON vort_p_sd                    =   4.1781278663962E-05
(PID.TID 0000.0001) %MON surfExpan_theta_mean         =   2.0304942912238E-20
(PID.TID 0000.0001) %MON surfExpan_salt_mean          =   3.0448572058756E-20
(PID.TID 0000.0001) // =======================================================
(PID.TID 0000.0001) // End MONITOR dynamic field statistics
(PID.TID 0000.0001) // =======================================================
 cg2d: Sum(rhs),rhsMax =  -2.52889719143432E-03  1.66563897189106E-01
 cg2d: Sum(rhs),rhsMax =  -2.52941280596097E-03  1.66567077484748E-01
 cg2d: Sum(rhs),rhsMax =  -2.52992895088195E-03  1.66570259644378E-01
 cg2d: Sum(rhs),rhsMax =  -2.53044562352046E-03  1.66573443674819E-01
 cg2d: Sum(rhs),rhsMax =  -2.53096282258268E-03  1.66576629582883E-01
 cg2d: Sum(rhs),rhsMax =  -2.53148054626177E-03  1.66579817375356E-01
 cg2d: Sum(rhs),rhsMax =  -2.53199879236641E-03  1.66583007059027E-01
 cg2d: Sum(rhs),rhsMax =  -2.53251755904159E-03  1.66586198640652E-01
 cg2d: Sum(rhs),rhsMax =  -2.53303684450276E-03  1.66589392126982E-01
 cg2d: Sum(rhs),rhsMax =  -2.53355664713854E-03  1.66592587524744E-01
 cg2d: Sum(rhs),rhsMax =  -2.53407696417627E-03  1.66595784840660E-01
 cg2d: Sum(rhs),rhsMax =  -2.53459779440985E-03  1.66598984081425E-01
 cg2d: Sum(rhs),rhsMax =  -2.53511913560988E-03  1.66602185253722E-01
 cg2d: Sum(rhs),rhsMax =  -2.53564098583613E-03  1.66605388364223E-01
 cg2d: Sum(rhs),rhsMax =  -2.53616334298929E-03  1.66608593419578E-01
 cg2d: Sum(rhs),rhsMax =  -2.53668620522765E-03  1.66611800426425E-01
 cg2d: Sum(rhs),rhsMax =  -2.53720957071243E-03  1.66615009391383E-01
 cg2d: Sum(rhs),rhsMax =  -2.53773343686360E-03  1.66618220321063E-01
 cg2d: Sum(rhs),rhsMax =  -2.53825780237669E-03  1.66621433222049E-01
 cg2d: Sum(rhs),rhsMax =  -2.53878266445190E-03  1.66624648100914E-01
 cg2d: Sum(rhs),rhsMax =  -2.53930802106024E-03  1.66627864964221E-01
 cg2d: Sum(rhs),rhsMax =  -2.53983387058202E-03  1.66631083818505E-01
 cg2d: Sum(rhs),rhsMax =  -2.54036021110996E-03  1.66634304670299E-01
 cg2d: Sum(rhs),rhsMax =  -2.54088704022071E-03  1.66637527526111E-01
 cg2d: Sum(rhs),rhsMax =  -2.54141435525689E-03  1.66640752392434E-01
 cg2d: Sum(rhs),rhsMax =  -2.54194215486172E-03  1.66643979275744E-01
 cg2d: Sum(rhs),rhsMax =  -2.54247043625620E-03  1.66647208182508E-01
 cg2d: Sum(rhs),rhsMax =  -2.54299919791952E-03  1.66650439119170E-01
 cg2d: Sum(rhs),rhsMax =  -2.54352843730948E-03  1.66653672092167E-01
 cg2d: Sum(rhs),rhsMax =  -2.54405815228441E-03  1.66656907107905E-01
 cg2d: Sum(rhs),rhsMax =  -2.54458834084757E-03  1.66660144172790E-01
 cg2d: Sum(rhs),rhsMax =  -2.54511900062495E-03  1.66663383293203E-01
 cg2d: Sum(rhs),rhsMax =  -2.54565012918414E-03  1.66666624475510E-01
 cg2d: Sum(rhs),rhsMax =  -2.54618172500430E-03  1.66669867726067E-01
 cg2d: Sum(rhs),rhsMax =  -2.54671378507469E-03  1.66673113051205E-01
 cg2d: Sum(rhs),rhsMax =  -2.54724630765999E-03  1.66676360457243E-01
 cg2d: Sum(rhs),rhsMax =  -2.54777929023390E-03  1.66679609950488E-01
 cg2d: Sum(rhs),rhsMax =  -2.54831273083706E-03  1.66682861537225E-01
 cg2d: Sum(rhs),rhsMax =  -2.54884662656565E-03  1.66686115223725E-01
 cg2d: Sum(rhs),rhsMax =  -2.54938097629826E-03  1.66689371016253E-01
 cg2d: Sum(rhs),rhsMax =  -2.54991577648684E-03  1.66692628921036E-01
 cg2d: Sum(rhs),rhsMax =  -2.55045102543519E-03  1.66695888944304E-01
 cg2d: Sum(rhs),rhsMax =  -2.55098672073271E-03  1.66699151092265E-01
 cg2d: Sum(rhs),rhsMax =  -2.55152286030926E-03  1.66702415371111E-01
 cg2d: Sum(rhs),rhsMax =  -2.55205944148541E-03  1.66705681787017E-01
 cg2d: Sum(rhs),rhsMax =  -2.55259646159417E-03  1.66708950346142E-01
 cg2d: Sum(rhs),rhsMax =  -2.55313391886391E-03  1.66712221054636E-01
 cg2d: Sum(rhs),rhsMax =  -2.55367181096236E-03  1.66715493918618E-01
 cg2d: Sum(rhs),rhsMax =  -2.55421013507730E-03  1.66718768944207E-01
 cg2d: Sum(rhs),rhsMax =  -2.55474888938820E-03  1.66722046137495E-01
 cg2d: Sum(rhs),rhsMax =  -2.55528807065160E-03  1.66725325504562E-01
 cg2d: Sum(rhs),rhsMax =  -2.55582767746781E-03  1.66728607051478E-01
 cg2d: Sum(rhs),rhsMax =  -2.55636770690729E-03  1.66731890784281E-01
 cg2d: Sum(rhs),rhsMax =  -2.55690815678056E-03  1.66735176709006E-01
 cg2d: Sum(rhs),rhsMax =  -2.55744902425407E-03  1.66738464831672E-01
 cg2d: Sum(rhs),rhsMax =  -2.55799030751054E-03  1.66741755158281E-01
 cg2d: Sum(rhs),rhsMax =  -2.55853200361750E-03  1.66745047694809E-01
 cg2d: Sum(rhs),rhsMax =  -2.55907411077056E-03  1.66748342447232E-01
 cg2d: Sum(rhs),rhsMax =  -2.55961662558694E-03  1.66751639421492E-01
 cg2d: Sum(rhs),rhsMax =  -2.56015954618850E-03  1.66754938623532E-01
 cg2d: Sum(rhs),rhsMax =  -2.56070287020847E-03  1.66758240059269E-01
 cg2d: Sum(rhs),rhsMax =  -2.56124659507760E-03  1.66761543734603E-01
 cg2d: Sum(rhs),rhsMax =  -2.56179071794804E-03  1.66764849655427E-01
 cg2d: Sum(rhs),rhsMax =  -2.56233523701181E-03  1.66768157827609E-01
 cg2d: Sum(rhs),rhsMax =  -2.56288014888908E-03  1.66771468257005E-01
 cg2d: Sum(rhs),rhsMax =  -2.56342545229243E-03  1.66774780949450E-01
 cg2d: Sum(rhs),rhsMax =  -2.56397114348798E-03  1.66778095910772E-01
 cg2d: Sum(rhs),rhsMax =  -2.56451722084447E-03  1.66781413146777E-01
 cg2d: Sum(rhs),rhsMax =  -2.56506368153853E-03  1.66784732663253E-01
 cg2d: Sum(rhs),rhsMax =  -2.56561052285017E-03  1.66788054465980E-01
 cg2d: Sum(rhs),rhsMax =  -2.56615774298396E-03  1.66791378560706E-01
 cg2d: Sum(rhs),rhsMax =  -2.56661365734955E-03  1.66794705628561E-01
(PID.TID 0000.0001)      cg2d_init_res =   1.03431751341708E-03
(PID.TID 0000.0001)      cg2d_iters(min,last) =      -1      77
(PID.TID 0000.0001)      cg2d_last_res =   8.93913631454689E-08
(PID.TID 0000.0001) // =======================================================
(PID.TID 0000.0001) // Begin MONITOR dynamic field statistics
(PID.TID 0000.0001) // =======================================================
(PID.TID 0000.0001) %MON time_tsnumber                =                  8136
(PID.TID 0000.0001) %MON time_secondsf                =   9.7632000000000E+06
(PID.TID 0000.0001) %MON dynstat_eta_max              =   1.9690638172668E-01
(PID.TID 0000.0001) %MON dynstat_eta_min              =  -7.4166803833689E-02
(PID.TID 0000.0001) %MON dynstat_eta_mean             =   2.1398139172123E-06
(PID.TID 0000.0001) %MON dynstat_eta_sd               =   8.0828574382518E-02
(PID.TID 0000.0001) %MON dynstat_eta_del2             =   2.4687931441667E-05
(PID.TID 0000.0001) %MON dynstat_uvel_max             =   1.2265962313483E-01
(PID.TID 0000.0001) %MON dynstat_uvel_min             =  -7.3663012983612E-02
(PID.TID 0000.0001) %MON dynstat_uvel_mean            =   8.7913946140914E-09
(PID.TID 0000.0001) %MON dynstat_uvel_sd              =   3.4330581983410E-02
(PID.TID 0000.0001) %MON dynstat_uvel_del2            =   6.2411801409247E-05
(PID.TID 0000.0001) %MON dynstat_vvel_max             =   7.4148538034913E-02
(PID.TID 0000.0001) %MON dynstat_vvel_min             =  -8.3286720799301E-02
(PID.TID 0000.0001) %MON dynstat_vvel_mean            =   1.1670209910441E-07
(PID.TID 0000.0001) %MON dynstat_vvel_sd              =   3.0384411718788E-02
(PID.TID 0000.0001) %MON dynstat_vvel_del2            =   4.0480988890876E-05
(PID.TID 0000.0001) %MON dynstat_wvel_max             =   1.8229949515371E-08
(PID.TID 0000.0001) %MON dynstat_wvel_min             =  -9.8257538792677E-09
(PID.TID 0000.0001) %MON dynstat_wvel_mean            =   2.7783390679461E-21
(PID.TID 0000.0001) %MON dynstat_wvel_sd              =   6.8628369801309E-09
(PID.TID 0000.0001) %MON dynstat_wvel_del2            =   3.1655605863568E-12
(PID.TID 0000.0001) %MON dynstat_theta_max            =   2.0000000000000E+01
(PID.TID 0000.0001) %MON dynstat_theta_min            =   2.0000000000000E+01
(PID.TID 0000.0001) %MON dynstat_theta_mean           =   2.0000000000000E+01
(PID.TID 0000.0001) %MON dynstat_theta_sd             =   3.8014036363165E-13
(PID.TID 0000.0001) %MON dynstat_theta_del2           =   0.0000000000000E+00
(PID.TID 0000.0001) %MON dynstat_salt_max             =   3.0000000000000E+01
(PID.TID 0000.0001) %MON dynstat_salt_min             =   3.0000000000000E+01
(PID.TID 0000.0001) %MON dynstat_salt_mean            =   2.9999999999999E+01
(PID.TID 0000.0001) %MON dynstat_salt_sd              =   5.5777604757167E-13
(PID.TID 0000.0001) %MON dynstat_salt_del2            =   0.0000000000000E+00
(PID.TID 0000.0001) %MON trAdv_CFL_u_max              =   7.3583449724893E-03
(PID.TID 0000.0001) %MON trAdv_CFL_v_max              =   4.9893228697016E-03
(PID.TID 0000.0001) %MON trAdv_CFL_w_max              =   4.7920397171359E-09
(PID.TID 0000.0001) %MON advcfl_uvel_max              =   7.3595773880895E-03
(PID.TID 0000.0001) %MON advcfl_vvel_max              =   4.9972032479581E-03
(PID.TID 0000.0001) %MON advcfl_wvel_max              =   8.7503757673781E-09
(PID.TID 0000.0001) %MON advcfl_W_hf_max              =   0.0000000000000E+00
(PID.TID 0000.0001) %MON pe_b_mean                    =   6.6981232062128E-06
(PID.TID 0000.0001) %MON ke_max                       =   7.5325813054604E-03
(PID.TID 0000.0001) %MON ke_mean                      =   1.0315760585321E-03
(PID.TID 0000.0001) %MON ke_vol                       =   6.8893493896486E+15
(PID.TID 0000.0001) %MON vort_r_min                   =  -1.1800577720319E-06
(PID.TID 0000.0001) %MON vort_r_max                   =   2.6950352893842E-06
(PID.TID 0000.0001) %MON vort_a_mean                  =   1.0600000000000E-04
(PID.TID 0000.0001) %MON vort_a_sd                    =   3.5490285207532E-06
(PID.TID 0000.0001) %MON vort_p_mean                  =   1.1652272308690E-04
(PID.TID 0000.0001) %MON vort_p_sd                    =   4.1781522606297E-05
(PID.TID 0000.0001) %MON surfExpan_theta_mean         =   5.5578652791155E-20
(PID.TID 0000.0001) %MON surfExpan_salt_mean          =   8.3353452535246E-20
(PID.TID 0000.0001) // =======================================================
(PID.TID 0000.0001) // End MONITOR dynamic field statistics
(PID.TID 0000.0001) // =======================================================
 cg2d: Sum(rhs),rhsMax =  -2.56706973010626E-03  1.66798034355299E-01
 cg2d: Sum(rhs),rhsMax =  -2.56752600905834E-03  1.66801365353357E-01
 cg2d: Sum(rhs),rhsMax =  -2.56798249944078E-03  1.66804698670374E-01
 cg2d: Sum(rhs),rhsMax =  -2.56843921010720E-03  1.66808034313611E-01
 cg2d: Sum(rhs),rhsMax =  -2.56889613946118E-03  1.66811372285009E-01
 cg2d: Sum(rhs),rhsMax =  -2.56935328015522E-03  1.66814712587812E-01
 cg2d: Sum(rhs),rhsMax =  -2.56981062432339E-03  1.66818055226955E-01
 cg2d: Sum(rhs),rhsMax =  -2.57026816725574E-03  1.66821400208402E-01
 cg2d: Sum(rhs),rhsMax =  -2.57072590563943E-03  1.66824747538350E-01
 cg2d: Sum(rhs),rhsMax =  -2.57118383915250E-03  1.66828097222763E-01
 cg2d: Sum(rhs),rhsMax =  -2.57164196711092E-03  1.66831449267295E-01
 cg2d: Sum(rhs),rhsMax =  -2.57210028805718E-03  1.66834803677394E-01
 cg2d: Sum(rhs),rhsMax =  -2.57255880021166E-03  1.66838160458437E-01
 cg2d: Sum(rhs),rhsMax =  -2.57301750057035E-03  1.66841519615838E-01
 cg2d: Sum(rhs),rhsMax =  -2.57347638759684E-03  1.66844881155078E-01
 cg2d: Sum(rhs),rhsMax =  -2.57393545811236E-03  1.66848245081668E-01
 cg2d: Sum(rhs),rhsMax =  -2.57439471047372E-03  1.66851611401134E-01
 cg2d: Sum(rhs),rhsMax =  -2.57485414273048E-03  1.66854980118964E-01
 cg2d: Sum(rhs),rhsMax =  -2.57531375272580E-03  1.66858351240616E-01
 cg2d: Sum(rhs),rhsMax =  -2.57577353874487E-03  1.66861724771496E-01
 cg2d: Sum(rhs),rhsMax =  -2.57623349869840E-03  1.66865100716990E-01
 cg2d: Sum(rhs),rhsMax =  -2.57669363028425E-03  1.66868479082468E-01
 cg2d: Sum(rhs),rhsMax =  -2.57715393142891E-03  1.66871859873288E-01
 cg2d: Sum(rhs),rhsMax =  -2.57761440064017E-03  1.66875243094800E-01
 cg2d: Sum(rhs),rhsMax =  -2.57807503533945E-03  1.66878628752339E-01
 cg2d: Sum(rhs),rhsMax =  -2.57853583405373E-03  1.66882016851235E-01
 cg2d: Sum(rhs),rhsMax =  -2.57899679427815E-03  1.66885407396799E-01
 cg2d: Sum(rhs),rhsMax =  -2.57945791439784E-03  1.66888800394321E-01
 cg2d: Sum(rhs),rhsMax =  -2.57991919250672E-03  1.66892195849078E-01
 cg2d: Sum(rhs),rhsMax =  -2.58038062674584E-03  1.66895593766329E-01
 cg2d: Sum(rhs),rhsMax =  -2.58084221498348E-03  1.66898994151308E-01
 cg2d: Sum(rhs),rhsMax =  -2.58130395534456E-03  1.66902397009237E-01
 cg2d: Sum(rhs),rhsMax =  -2.58176584586610E-03  1.66905802345327E-01
 cg2d: Sum(rhs),rhsMax =  -2.58222788477816E-03  1.66909210164766E-01
 cg2d: Sum(rhs),rhsMax =  -2.58269007038919E-03  1.66912620472720E-01
 cg2d: Sum(rhs),rhsMax =  -2.58315240034689E-03  1.66916033274360E-01
 cg2d: Sum(rhs),rhsMax =  -2.58361487325303E-03  1.66919448574819E-01
 cg2d: Sum(rhs),rhsMax =  -2.58407748698710E-03  1.66922866379230E-01
 cg2d: Sum(rhs),rhsMax =  -2.58454023944945E-03  1.66926286692704E-01
 cg2d: Sum(rhs),rhsMax =  -2.58500312955941E-03  1.66929709520328E-01
 cg2d: Sum(rhs),rhsMax =  -2.58546615508191E-03  1.66933134867185E-01
 cg2d: Sum(rhs),rhsMax =  -2.58592931390721E-03  1.66936562738333E-01
 cg2d: Sum(rhs),rhsMax =  -2.58639260460496E-03  1.66939993138820E-01
 cg2d: Sum(rhs),rhsMax =  -2.58685602512175E-03  1.66943426073670E-01
 cg2d: Sum(rhs),rhsMax =  -2.58731957404974E-03  1.66946861547898E-01
 cg2d: Sum(rhs),rhsMax =  -2.58778324881738E-03  1.66950299566499E-01
 cg2d: Sum(rhs),rhsMax =  -2.58824704863700E-03  1.66953740134454E-01
 cg2d: Sum(rhs),rhsMax =  -2.58871097122277E-03  1.66957183256718E-01
 cg2d: Sum(rhs),rhsMax =  -2.58917501488247E-03  1.66960628938250E-01
 cg2d: Sum(rhs),rhsMax =  -2.58963917797329E-03  1.66964077183973E-01
 cg2d: Sum(rhs),rhsMax =  -2.59010345882847E-03  1.66967527998800E-01
 cg2d: Sum(rhs),rhsMax =  -2.59056785543443E-03  1.66970981387637E-01
 cg2d: Sum(rhs),rhsMax =  -2.59103236636358E-03  1.66974437355359E-01
 cg2d: Sum(rhs),rhsMax =  -2.59149699003464E-03  1.66977895906834E-01
 cg2d: Sum(rhs),rhsMax =  -2.59196172398951E-03  1.66981357046908E-01
 cg2d: Sum(rhs),rhsMax =  -2.59242656739795E-03  1.66984820780419E-01
 cg2d: Sum(rhs),rhsMax =  -2.59289151759843E-03  1.66988287112176E-01
 cg2d: Sum(rhs),rhsMax =  -2.59335657413674E-03  1.66991756046986E-01
 cg2d: Sum(rhs),rhsMax =  -2.59382173440683E-03  1.66995227589630E-01
 cg2d: Sum(rhs),rhsMax =  -2.59428699714331E-03  1.66998701744875E-01
 cg2d: Sum(rhs),rhsMax =  -2.59475236077423E-03  1.67002178517472E-01
 cg2d: Sum(rhs),rhsMax =  -2.59521782345445E-03  1.67005657912158E-01
 cg2d: Sum(rhs),rhsMax =  -2.59568338329632E-03  1.67009139933650E-01
 cg2d: Sum(rhs),rhsMax =  -2.59614903920135E-03  1.67012624586650E-01
 cg2d: Sum(rhs),rhsMax =  -2.59661478901273E-03  1.67016111875844E-01
 cg2d: Sum(rhs),rhsMax =  -2.59708063146508E-03  1.67019601805901E-01
 cg2d: Sum(rhs),rhsMax =  -2.59754656492404E-03  1.67023094381475E-01
 cg2d: Sum(rhs),rhsMax =  -2.59801258734555E-03  1.67026589607204E-01
 cg2d: Sum(rhs),rhsMax =  -2.59847869760647E-03  1.67030087487705E-01
 cg2d: Sum(rhs),rhsMax =  -2.59894489379731E-03  1.67033588027587E-01
 cg2d: Sum(rhs),rhsMax =  -2.59941117461542E-03  1.67037091231430E-01
 cg2d: Sum(rhs),rhsMax =  -2.59987753797084E-03  1.67040597103818E-01
(PID.TID 0000.0001)      cg2d_init_res =   1.02194000132509E-03
(PID.TID 0000.0001)      cg2d_iters(min,last) =      -1      77
(PID.TID 0000.0001)      cg2d_last_res =   9.35836372179929E-08
(PID.TID 0000.0001) // =======================================================
(PID.TID 0000.0001) // Begin MONITOR dynamic field statistics
(PID.TID 0000.0001) // =======================================================
(PID.TID 0000.0001) %MON time_tsnumber                =                  8208
(PID.TID 0000.0001) %MON time_secondsf                =   9.8496000000000E+06
(PID.TID 0000.0001) %MON dynstat_eta_max              =   1.9841052403201E-01
(PID.TID 0000.0001) %MON dynstat_eta_min              =  -7.4637741681425E-02
(PID.TID 0000.0001) %MON dynstat_eta_mean             =   2.1707478086227E-06
(PID.TID 0000.0001) %MON dynstat_eta_sd               =   8.1377639828040E-02
(PID.TID 0000.0001) %MON dynstat_eta_del2             =   2.4754542985080E-05
(PID.TID 0000.0001) %MON dynstat_uvel_max             =   1.2296915566003E-01
(PID.TID 0000.0001) %MON dynstat_uvel_min             =  -7.4066672141422E-02
(PID.TID 0000.0001) %MON dynstat_uvel_mean            =  -2.1749902225263E-10
(PID.TID 0000.0001) %MON dynstat_uvel_sd              =   3.4518539856027E-02
(PID.TID 0000.0001) %MON dynstat_uvel_del2            =   6.2562480005749E-05
(PID.TID 0000.0001) %MON dynstat_vvel_max             =   7.4383101174658E-02
(PID.TID 0000.0001) %MON dynstat_vvel_min             =  -8.3972747737656E-02
(PID.TID 0000.0001) %MON dynstat_vvel_mean            =   1.1725610103704E-07
(PID.TID 0000.0001) %MON dynstat_vvel_sd              =   3.0586192285353E-02
(PID.TID 0000.0001) %MON dynstat_vvel_del2            =   4.0364739674441E-05
(PID.TID 0000.0001) %MON dynstat_wvel_max             =   1.8226374279911E-08
(PID.TID 0000.0001) %MON dynstat_wvel_min             =  -9.4743403256871E-09
(PID.TID 0000.0001) %MON dynstat_wvel_mean            =   1.7395084089205E-21
(PID.TID 0000.0001) %MON dynstat_wvel_sd              =   6.8510732500634E-09
(PID.TID 0000.0001) %MON dynstat_wvel_del2            =   3.1452198609457E-12
(PID.TID 0000.0001) %MON dynstat_theta_max            =   2.0000000000000E+01
(PID.TID 0000.0001) %MON dynstat_theta_min            =   2.0000000000000E+01
(PID.TID 0000.0001) %MON dynstat_theta_mean           =   2.0000000000000E+01
(PID.TID 0000.0001) %MON dynstat_theta_sd             =   3.8014036363165E-13
(PID.TID 0000.0001) %MON dynstat_theta_del2           =   0.0000000000000E+00
(PID.TID 0000.0001) %MON dynstat_salt_max             =   3.0000000000000E+01
(PID.TID 0000.0001) %MON dynstat_salt_min             =   3.0000000000000E+01
(PID.TID 0000.0001) %MON dynstat_salt_mean            =   2.9999999999999E+01
(PID.TID 0000.0001) %MON dynstat_salt_sd              =   5.5777604757167E-13
(PID.TID 0000.0001) %MON dynstat_salt_del2            =   0.0000000000000E+00
(PID.TID 0000.0001) %MON trAdv_CFL_u_max              =   7.3769283522450E-03
(PID.TID 0000.0001) %MON trAdv_CFL_v_max              =   5.0304165040283E-03
(PID.TID 0000.0001) %MON trAdv_CFL_w_max              =   4.7910926994299E-09
(PID.TID 0000.0001) %MON advcfl_uvel_max              =   7.3781493396020E-03
(PID.TID 0000.0001) %MON advcfl_vvel_max              =   5.0383648642593E-03
(PID.TID 0000.0001) %MON advcfl_wvel_max              =   8.7486596543575E-09
(PID.TID 0000.0001) %MON advcfl_W_hf_max              =   0.0000000000000E+00
(PID.TID 0000.0001) %MON pe_b_mean                    =   6.7894324814071E-06
(PID.TID 0000.0001) %MON ke_max                       =   7.5683238513192E-03
(PID.TID 0000.0001) %MON ke_mean                      =   1.0439656715222E-03
(PID.TID 0000.0001) %MON ke_vol                       =   6.8893493896486E+15
(PID.TID 0000.0001) %MON vort_r_min                   =  -1.1778394019525E-06
(PID.TID 0000.0001) %MON vort_r_max                   =   2.6998649244276E-06
(PID.TID 0000.0001) %MON vort_a_mean                  =   1.0600000000000E-04
(PID.TID 0000.0001) %MON vort_a_sd                    =   3.5491658920778E-06
(PID.TID 0000.0001) %MON vort_p_mean                  =   1.1652272308690E-04
(PID.TID 0000.0001) %MON vort_p_sd                    =   4.1781762445590E-05
(PID.TID 0000.0001) %MON surfExpan_theta_mean         =   3.4834752366603E-20
(PID.TID 0000.0001) %MON surfExpan_salt_mean          =   5.2259076078877E-20
(PID.TID 0000.0001) // =======================================================
(PID.TID 0000.0001) // End MONITOR dynamic field statistics
(PID.TID 0000.0001) // =======================================================
 cg2d: Sum(rhs),rhsMax =  -2.60034398306045E-03  1.67044105649294E-01
 cg2d: Sum(rhs),rhsMax =  -2.60081050743360E-03  1.67047616872406E-01
 cg2d: Sum(rhs),rhsMax =  -2.60127710993277E-03  1.67051130777671E-01
 cg2d: Sum(rhs),rhsMax =  -2.60174378878631E-03  1.67054647369596E-01
 cg2d: Sum(rhs),rhsMax =  -2.60221054279368E-03  1.67058166652670E-01
 cg2d: Sum(rhs),rhsMax =  -2.60267736986240E-03  1.67061688631367E-01
 cg2d: Sum(rhs),rhsMax =  -2.60314426866495E-03  1.67065213310151E-01
 cg2d: Sum(rhs),rhsMax =  -2.60361123755947E-03  1.67068740693453E-01
 cg2d: Sum(rhs),rhsMax =  -2.60407827500830E-03  1.67072270785704E-01
 cg2d: Sum(rhs),rhsMax =  -2.60454537978165E-03  1.67075803591310E-01
 cg2d: Sum(rhs),rhsMax =  -2.60501254975024E-03  1.67079339114661E-01
 cg2d: Sum(rhs),rhsMax =  -2.60547978341134E-03  1.67082877360133E-01
 cg2d: Sum(rhs),rhsMax =  -2.60594707975811E-03  1.67086418332090E-01
 cg2d: Sum(rhs),rhsMax =  -2.60641443637263E-03  1.67089962034873E-01
 cg2d: Sum(rhs),rhsMax =  -2.60688185228087E-03  1.67093508472801E-01
 cg2d: Sum(rhs),rhsMax =  -2.60734932584924E-03  1.67097057650194E-01
 cg2d: Sum(rhs),rhsMax =  -2.60781685553841E-03  1.67100609571343E-01
 cg2d: Sum(rhs),rhsMax =  -2.60828443952483E-03  1.67104164240523E-01
 cg2d: Sum(rhs),rhsMax =  -2.60875207654088E-03  1.67107721661997E-01
 cg2d: Sum(rhs),rhsMax =  -2.60921976532932E-03  1.67111281840010E-01
 cg2d: Sum(rhs),rhsMax =  -2.60968750321833E-03  1.67114844778788E-01
 cg2d: Sum(rhs),rhsMax =  -2.61015528981545E-03  1.67118410482546E-01
 cg2d: Sum(rhs),rhsMax =  -2.61062312308719E-03  1.67121978955481E-01
 cg2d: Sum(rhs),rhsMax =  -2.61109100143015E-03  1.67125550201771E-01
 cg2d: Sum(rhs),rhsMax =  -2.61155892324519E-03  1.67129124225573E-01
 cg2d: Sum(rhs),rhsMax =  -2.61202688733190E-03  1.67132701031047E-01
 cg2d: Sum(rhs),rhsMax =  -2.61249489183537E-03  1.67136280622316E-01
 cg2d: Sum(rhs),rhsMax =  -2.61296293503028E-03  1.67139863003490E-01
 cg2d: Sum(rhs),rhsMax =  -2.61343101559474E-03  1.67143448178672E-01
 cg2d: Sum(rhs),rhsMax =  -2.61389913224506E-03  1.67147036151947E-01
 cg2d: Sum(rhs),rhsMax =  -2.61436728285776E-03  1.67150626927372E-01
 cg2d: Sum(rhs),rhsMax =  -2.61483546594578E-03  1.67154220509004E-01
 cg2d: Sum(rhs),rhsMax =  -2.61530368044781E-03  1.67157816900866E-01
 cg2d: Sum(rhs),rhsMax =  -2.61577192417770E-03  1.67161416106990E-01
 cg2d: Sum(rhs),rhsMax =  -2.61624019543633E-03  1.67165018131355E-01
 cg2d: Sum(rhs),rhsMax =  -2.61670849351919E-03  1.67168622977959E-01
 cg2d: Sum(rhs),rhsMax =  -2.61717681598744E-03  1.67172230650767E-01
 cg2d: Sum(rhs),rhsMax =  -2.61764516190043E-03  1.67175841153729E-01
 cg2d: Sum(rhs),rhsMax =  -2.61811352925051E-03  1.67179454490779E-01
 cg2d: Sum(rhs),rhsMax =  -2.61858191694863E-03  1.67183070665834E-01
 cg2d: Sum(rhs),rhsMax =  -2.61905032223988E-03  1.67186689682800E-01
 cg2d: Sum(rhs),rhsMax =  -2.61951874453838E-03  1.67190311545559E-01
 cg2d: Sum(rhs),rhsMax =  -2.61998718207964E-03  1.67193936257985E-01
 cg2d: Sum(rhs),rhsMax =  -2.62045563315653E-03  1.67197563823925E-01
 cg2d: Sum(rhs),rhsMax =  -2.62092409624354E-03  1.67201194247219E-01
 cg2d: Sum(rhs),rhsMax =  -2.62139256925433E-03  1.67204827531689E-01
 cg2d: Sum(rhs),rhsMax =  -2.62186105107978E-03  1.67208463681136E-01
 cg2d: Sum(rhs),rhsMax =  -2.62232954024471E-03  1.67212102699351E-01
 cg2d: Sum(rhs),rhsMax =  -2.62279803464634E-03  1.67215744590102E-01
 cg2d: Sum(rhs),rhsMax =  -2.62326653325623E-03  1.67219389357150E-01
 cg2d: Sum(rhs),rhsMax =  -2.62373503370712E-03  1.67223037004228E-01
 cg2d: Sum(rhs),rhsMax =  -2.62420353474842E-03  1.67226687535060E-01
 cg2d: Sum(rhs),rhsMax =  -2.62467203464864E-03  1.67230340953355E-01
 cg2d: Sum(rhs),rhsMax =  -2.62514053160703E-03  1.67233997262802E-01
 cg2d: Sum(rhs),rhsMax =  -2.62560902424380E-03  1.67237656467072E-01
 cg2d: Sum(rhs),rhsMax =  -2.62607751081045E-03  1.67241318569832E-01
 cg2d: Sum(rhs),rhsMax =  -2.62654598954890E-03  1.67244983574707E-01
 cg2d: Sum(rhs),rhsMax =  -2.62701445888362E-03  1.67248651485339E-01
 cg2d: Sum(rhs),rhsMax =  -2.62748291730539E-03  1.67252322305327E-01
 cg2d: Sum(rhs),rhsMax =  -2.62795136277100E-03  1.67255996038263E-01
 cg2d: Sum(rhs),rhsMax =  -2.62841979348670E-03  1.67259672687731E-01
 cg2d: Sum(rhs),rhsMax =  -2.62888820810090E-03  1.67263352257282E-01
 cg2d: Sum(rhs),rhsMax =  -2.62935660498178E-03  1.67267034750465E-01
 cg2d: Sum(rhs),rhsMax =  -2.62982498227056E-03  1.67270720170808E-01
 cg2d: Sum(rhs),rhsMax =  -2.63029333805410E-03  1.67274408521814E-01
 cg2d: Sum(rhs),rhsMax =  -2.63076167079533E-03  1.67278099806990E-01
 cg2d: Sum(rhs),rhsMax =  -2.63122997904093E-03  1.67281794029805E-01
 cg2d: Sum(rhs),rhsMax =  -2.63169826041089E-03  1.67285491193728E-01
 cg2d: Sum(rhs),rhsMax =  -2.63216651364221E-03  1.67289191302204E-01
 cg2d: Sum(rhs),rhsMax =  -2.63263473669276E-03  1.67292894358655E-01
 cg2d: Sum(rhs),rhsMax =  -2.63310292788790E-03  1.67296600366504E-01
 cg2d: Sum(rhs),rhsMax =  -2.63357108586459E-03  1.67300309329147E-01
(PID.TID 0000.0001)      cg2d_init_res =   1.00985584209299E-03
(PID.TID 0000.0001)      cg2d_iters(min,last) =      -1      77
(PID.TID 0000.0001)      cg2d_last_res =   9.53521817141355E-08
(PID.TID 0000.0001) // =======================================================
(PID.TID 0000.0001) // Begin MONITOR dynamic field statistics
(PID.TID 0000.0001) // =======================================================
(PID.TID 0000.0001) %MON time_tsnumber                =                  8280
(PID.TID 0000.0001) %MON time_secondsf                =   9.9360000000000E+06
(PID.TID 0000.0001) %MON dynstat_eta_max              =   1.9991308551909E-01
(PID.TID 0000.0001) %MON dynstat_eta_min              =  -7.5108526252783E-02
(PID.TID 0000.0001) %MON dynstat_eta_mean             =   2.2022977172792E-06
(PID.TID 0000.0001) %MON dynstat_eta_sd               =   8.1928459886812E-02
(PID.TID 0000.0001) %MON dynstat_eta_del2             =   2.4819330192533E-05
(PID.TID 0000.0001) %MON dynstat_uvel_max             =   1.2326389316900E-01
(PID.TID 0000.0001) %MON dynstat_uvel_min             =  -7.4462923395195E-02
(PID.TID 0000.0001) %MON dynstat_uvel_mean            =  -8.9089300302603E-09
(PID.TID 0000.0001) %MON dynstat_uvel_sd              =   3.4707076568356E-02
(PID.TID 0000.0001) %MON dynstat_uvel_del2            =   6.2701762956384E-05
(PID.TID 0000.0001) %MON dynstat_vvel_max             =   7.4834277642264E-02
(PID.TID 0000.0001) %MON dynstat_vvel_min             =  -8.4667775836735E-02
(PID.TID 0000.0001) %MON dynstat_vvel_mean            =   1.1844831600280E-07
(PID.TID 0000.0001) %MON dynstat_vvel_sd              =   3.0788309828337E-02
(PID.TID 0000.0001) %MON dynstat_vvel_del2            =   4.0262581301820E-05
(PID.TID 0000.0001) %MON dynstat_wvel_max             =   1.8226630750723E-08
(PID.TID 0000.0001) %MON dynstat_wvel_min             =  -9.0663622226566E-09
(PID.TID 0000.0001) %MON dynstat_wvel_mean            =   8.3375701049388E-21
(PID.TID 0000.0001) %MON dynstat_wvel_sd              =   6.8383401211173E-09
(PID.TID 0000.0001) %MON dynstat_wvel_del2            =   3.1236069304799E-12
(PID.TID 0000.0001) %MON dynstat_theta_max            =   2.0000000000000E+01
(PID.TID 0000.0001) %MON dynstat_theta_min            =   2.0000000000000E+01
(PID.TID 0000.0001) %MON dynstat_theta_mean           =   2.0000000000000E+01
(PID.TID 0000.0001) %MON dynstat_theta_sd             =   3.8014036363165E-13
(PID.TID 0000.0001) %MON dynstat_theta_del2           =   0.0000000000000E+00
(PID.TID 0000.0001) %MON dynstat_salt_max             =   3.0000000000000E+01
(PID.TID 0000.0001) %MON dynstat_salt_min             =   3.0000000000000E+01
(PID.TID 0000.0001) %MON dynstat_salt_mean            =   2.9999999999999E+01
(PID.TID 0000.0001) %MON dynstat_salt_sd              =   5.5777604757167E-13
(PID.TID 0000.0001) %MON dynstat_salt_del2            =   0.0000000000000E+00
(PID.TID 0000.0001) %MON trAdv_CFL_u_max              =   7.3946211040043E-03
(PID.TID 0000.0001) %MON trAdv_CFL_v_max              =   5.0720499158268E-03
(PID.TID 0000.0001) %MON trAdv_CFL_w_max              =   4.7911489948381E-09
(PID.TID 0000.0001) %MON advcfl_uvel_max              =   7.3958335901402E-03
(PID.TID 0000.0001) %MON advcfl_vvel_max              =   5.0800665502041E-03
(PID.TID 0000.0001) %MON advcfl_wvel_max              =   8.7487827603472E-09
(PID.TID 0000.0001) %MON advcfl_W_hf_max              =   0.0000000000000E+00
(PID.TID 0000.0001) %MON pe_b_mean                    =   6.8816546749623E-06
(PID.TID 0000.0001) %MON ke_max                       =   7.6026299875358E-03
(PID.TID 0000.0001) %MON ke_mean                      =   1.0564598340791E-03
(PID.TID 0000.0001) %MON ke_vol                       =   6.8893493896486E+15
(PID.TID 0000.0001) %MON vort_r_min                   =  -1.1745935345359E-06
(PID.TID 0000.0001) %MON vort_r_max                   =   2.7051519336520E-06
(PID.TID 0000.0001) %MON vort_a_mean                  =   1.0600000000000E-04
(PID.TID 0000.0001) %MON vort_a_sd                    =   3.5493030902213E-06
(PID.TID 0000.0001) %MON vort_p_mean                  =   1.1652272308690E-04
(PID.TID 0000.0001) %MON vort_p_sd                    =   4.1781998369511E-05
(PID.TID 0000.0001) %MON surfExpan_theta_mean         =   1.6678516345792E-19
(PID.TID 0000.0001) %MON surfExpan_salt_mean          =   2.5017901824261E-19
(PID.TID 0000.0001) // =======================================================
(PID.TID 0000.0001) // End MONITOR dynamic field statistics
(PID.TID 0000.0001) // =======================================================
 cg2d: Sum(rhs),rhsMax =  -2.63403920829058E-03  1.67304021249962E-01
 cg2d: Sum(rhs),rhsMax =  -2.63450729378336E-03  1.67307736132315E-01
 cg2d: Sum(rhs),rhsMax =  -2.63497534025272E-03  1.67311453979553E-01
 cg2d: Sum(rhs),rhsMax =  -2.63544334596729E-03  1.67315174795013E-01
 cg2d: Sum(rhs),rhsMax =  -2.63591130922080E-03  1.67318898582013E-01
 cg2d: Sum(rhs),rhsMax =  -2.63637922816043E-03  1.67322625343845E-01
 cg2d: Sum(rhs),rhsMax =  -2.63684710104880E-03  1.67326355083798E-01
 cg2d: Sum(rhs),rhsMax =  -2.63731492601236E-03  1.67330087805141E-01
 cg2d: Sum(rhs),rhsMax =  -2.63778270111497E-03  1.67333823511118E-01
 cg2d: Sum(rhs),rhsMax =  -2.63825042496018E-03  1.67337562204974E-01
 cg2d: Sum(rhs),rhsMax =  -2.63871809491655E-03  1.67341303889923E-01
 cg2d: Sum(rhs),rhsMax =  -2.63918570965488E-03  1.67345048569170E-01
 cg2d: Sum(rhs),rhsMax =  -2.63965326765519E-03  1.67348796245895E-01
 cg2d: Sum(rhs),rhsMax =  -2.64012076620151E-03  1.67352546923278E-01
 cg2d: Sum(rhs),rhsMax =  -2.64058820411270E-03  1.67356300604468E-01
 cg2d: Sum(rhs),rhsMax =  -2.64105557910181E-03  1.67360057292601E-01
 cg2d: Sum(rhs),rhsMax =  -2.64152288962369E-03  1.67363816990806E-01
 cg2d: Sum(rhs),rhsMax =  -2.64199013315084E-03  1.67367579702185E-01
 cg2d: Sum(rhs),rhsMax =  -2.64245730818598E-03  1.67371345429828E-01
 cg2d: Sum(rhs),rhsMax =  -2.64292441285438E-03  1.67375114176807E-01
 cg2d: Sum(rhs),rhsMax =  -2.64339144516675E-03  1.67378885946178E-01
 cg2d: Sum(rhs),rhsMax =  -2.64385840333851E-03  1.67382660740991E-01
 cg2d: Sum(rhs),rhsMax =  -2.64432528530832E-03  1.67386438564260E-01
 cg2d: Sum(rhs),rhsMax =  -2.64479208914609E-03  1.67390219418998E-01
 cg2d: Sum(rhs),rhsMax =  -2.64525881269828E-03  1.67394003308202E-01
 cg2d: Sum(rhs),rhsMax =  -2.64572545429629E-03  1.67397790234843E-01
 cg2d: Sum(rhs),rhsMax =  -2.64619201176100E-03  1.67401580201889E-01
 cg2d: Sum(rhs),rhsMax =  -2.64665848328651E-03  1.67405373212271E-01
 cg2d: Sum(rhs),rhsMax =  -2.64712486699323E-03  1.67409169268928E-01
 cg2d: Sum(rhs),rhsMax =  -2.64759116062372E-03  1.67412968374773E-01
 cg2d: Sum(rhs),rhsMax =  -2.64805736203158E-03  1.67416770532695E-01
 cg2d: Sum(rhs),rhsMax =  -2.64852346943137E-03  1.67420575745580E-01
 cg2d: Sum(rhs),rhsMax =  -2.64898948122514E-03  1.67424384016286E-01
 cg2d: Sum(rhs),rhsMax =  -2.64945539433832E-03  1.67428195347669E-01
 cg2d: Sum(rhs),rhsMax =  -2.64992120745428E-03  1.67432009742553E-01
 cg2d: Sum(rhs),rhsMax =  -2.65038691860770E-03  1.67435827203758E-01
 cg2d: Sum(rhs),rhsMax =  -2.65085252534239E-03  1.67439647734082E-01
 cg2d: Sum(rhs),rhsMax =  -2.65131802572620E-03  1.67443471336305E-01
 cg2d: Sum(rhs),rhsMax =  -2.65178341784615E-03  1.67447298013202E-01
 cg2d: Sum(rhs),rhsMax =  -2.65224869956797E-03  1.67451127767520E-01
 cg2d: Sum(rhs),rhsMax =  -2.65271386887067E-03  1.67454960601993E-01
 cg2d: Sum(rhs),rhsMax =  -2.65317892311410E-03  1.67458796519340E-01
 cg2d: Sum(rhs),rhsMax =  -2.65364386060406E-03  1.67462635522269E-01
 cg2d: Sum(rhs),rhsMax =  -2.65410867929566E-03  1.67466477613462E-01
 cg2d: Sum(rhs),rhsMax =  -2.65457337699532E-03  1.67470322795596E-01
 cg2d: Sum(rhs),rhsMax =  -2.65503795151135E-03  1.67474171071320E-01
 cg2d: Sum(rhs),rhsMax =  -2.65550240073613E-03  1.67478022443277E-01
 cg2d: Sum(rhs),rhsMax =  -2.65596672242916E-03  1.67481876914087E-01
 cg2d: Sum(rhs),rhsMax =  -2.65643091420696E-03  1.67485734486358E-01
 cg2d: Sum(rhs),rhsMax =  -2.65689497445803E-03  1.67489595162684E-01
 cg2d: Sum(rhs),rhsMax =  -2.65735890064395E-03  1.67493458945634E-01
 cg2d: Sum(rhs),rhsMax =  -2.65782269047465E-03  1.67497325837774E-01
 cg2d: Sum(rhs),rhsMax =  -2.65828634210813E-03  1.67501195841644E-01
 cg2d: Sum(rhs),rhsMax =  -2.65874985323520E-03  1.67505068959771E-01
 cg2d: Sum(rhs),rhsMax =  -2.65921322145814E-03  1.67508945194664E-01
 cg2d: Sum(rhs),rhsMax =  -2.65967644435006E-03  1.67512824548822E-01
 cg2d: Sum(rhs),rhsMax =  -2.66013952013468E-03  1.67516707024721E-01
 cg2d: Sum(rhs),rhsMax =  -2.66060244651276E-03  1.67520592624827E-01
 cg2d: Sum(rhs),rhsMax =  -2.66106522087903E-03  1.67524481351589E-01
 cg2d: Sum(rhs),rhsMax =  -2.66152784119657E-03  1.67528373207431E-01
 cg2d: Sum(rhs),rhsMax =  -2.66199030519502E-03  1.67532268194777E-01
 cg2d: Sum(rhs),rhsMax =  -2.66245261069886E-03  1.67536166316019E-01
 cg2d: Sum(rhs),rhsMax =  -2.66291475510208E-03  1.67540067573548E-01
 cg2d: Sum(rhs),rhsMax =  -2.66337673649435E-03  1.67543971969725E-01
 cg2d: Sum(rhs),rhsMax =  -2.66383855221322E-03  1.67547879506906E-01
 cg2d: Sum(rhs),rhsMax =  -2.66430019987042E-03  1.67551790187426E-01
 cg2d: Sum(rhs),rhsMax =  -2.66476167778801E-03  1.67555704013602E-01
 cg2d: Sum(rhs),rhsMax =  -2.66522298310218E-03  1.67559620987744E-01
 cg2d: Sum(rhs),rhsMax =  -2.66568411338698E-03  1.67563541112131E-01
 cg2d: Sum(rhs),rhsMax =  -2.66614506619469E-03  1.67567464389049E-01
 cg2d: Sum(rhs),rhsMax =  -2.66660583973021E-03  1.67571390820741E-01
 cg2d: Sum(rhs),rhsMax =  -2.66706643098898E-03  1.67575320409459E-01
(PID.TID 0000.0001)      cg2d_init_res =   9.98111318553681E-04
(PID.TID 0000.0001)      cg2d_iters(min,last) =      -1      77
(PID.TID 0000.0001)      cg2d_last_res =   9.50557776672438E-08
(PID.TID 0000.0001) // =======================================================
(PID.TID 0000.0001) // Begin MONITOR dynamic field statistics
(PID.TID 0000.0001) // =======================================================
(PID.TID 0000.0001) %MON time_tsnumber                =                  8352
(PID.TID 0000.0001) %MON time_secondsf                =   1.0022400000000E+07
(PID.TID 0000.0001) %MON dynstat_eta_max              =   2.0141357229354E-01
(PID.TID 0000.0001) %MON dynstat_eta_min              =  -7.5578257754387E-02
(PID.TID 0000.0001) %MON dynstat_eta_mean             =   2.2339655005729E-06
(PID.TID 0000.0001) %MON dynstat_eta_sd               =   8.2480725141107E-02
(PID.TID 0000.0001) %MON dynstat_eta_del2             =   2.4882574110705E-05
(PID.TID 0000.0001) %MON dynstat_uvel_max             =   1.2354748882108E-01
(PID.TID 0000.0001) %MON dynstat_uvel_min             =  -7.4858093304915E-02
(PID.TID 0000.0001) %MON dynstat_uvel_mean            =  -1.7051482014059E-08
(PID.TID 0000.0001) %MON dynstat_uvel_sd              =   3.4896561706011E-02
(PID.TID 0000.0001) %MON dynstat_uvel_del2            =   6.2830426333590E-05
(PID.TID 0000.0001) %MON dynstat_vvel_max             =   7.5300535728039E-02
(PID.TID 0000.0001) %MON dynstat_vvel_min             =  -8.5371195046605E-02
(PID.TID 0000.0001) %MON dynstat_vvel_mean            =   1.2015913251485E-07
(PID.TID 0000.0001) %MON dynstat_vvel_sd              =   3.0990317775959E-02
(PID.TID 0000.0001) %MON dynstat_vvel_del2            =   4.0174457858341E-05
(PID.TID 0000.0001) %MON dynstat_wvel_max             =   1.8229166162928E-08
(PID.TID 0000.0001) %MON dynstat_wvel_min             =  -8.7292076228186E-09
(PID.TID 0000.0001) %MON dynstat_wvel_mean            =   8.6847992659184E-21
(PID.TID 0000.0001) %MON dynstat_wvel_sd              =   6.8241834658078E-09
(PID.TID 0000.0001) %MON dynstat_wvel_del2            =   3.1006597690463E-12
(PID.TID 0000.0001) %MON dynstat_theta_max            =   2.0000000000000E+01
(PID.TID 0000.0001) %MON dynstat_theta_min            =   2.0000000000000E+01
(PID.TID 0000.0001) %MON dynstat_theta_mean           =   2.0000000000000E+01
(PID.TID 0000.0001) %MON dynstat_theta_sd             =   3.8014036363165E-13
(PID.TID 0000.0001) %MON dynstat_theta_del2           =   0.0000000000000E+00
(PID.TID 0000.0001) %MON dynstat_salt_max             =   3.0000000000000E+01
(PID.TID 0000.0001) %MON dynstat_salt_min             =   3.0000000000000E+01
(PID.TID 0000.0001) %MON dynstat_salt_mean            =   2.9999999999999E+01
(PID.TID 0000.0001) %MON dynstat_salt_sd              =   5.5777604757167E-13
(PID.TID 0000.0001) %MON dynstat_salt_del2            =   0.0000000000000E+00
(PID.TID 0000.0001) %MON trAdv_CFL_u_max              =   7.4116423965527E-03
(PID.TID 0000.0001) %MON trAdv_CFL_v_max              =   5.1141865757745E-03
(PID.TID 0000.0001) %MON trAdv_CFL_w_max              =   4.7918098898761E-09
(PID.TID 0000.0001) %MON advcfl_uvel_max              =   7.4128493292648E-03
(PID.TID 0000.0001) %MON advcfl_vvel_max              =   5.1222717027963E-03
(PID.TID 0000.0001) %MON advcfl_wvel_max              =   8.7499997582054E-09
(PID.TID 0000.0001) %MON advcfl_W_hf_max              =   0.0000000000000E+00
(PID.TID 0000.0001) %MON pe_b_mean                    =   6.9747434019415E-06
(PID.TID 0000.0001) %MON ke_max                       =   7.6359351069606E-03
(PID.TID 0000.0001) %MON ke_mean                      =   1.0690581431745E-03
(PID.TID 0000.0001) %MON ke_vol                       =   6.8893493896486E+15
(PID.TID 0000.0001) %MON vort_r_min                   =  -1.1712904541716E-06
(PID.TID 0000.0001) %MON vort_r_max                   =   2.7103534829264E-06
(PID.TID 0000.0001) %MON vort_a_mean                  =   1.0600000000000E-04
(PID.TID 0000.0001) %MON vort_a_sd                    =   3.5494407476573E-06
(PID.TID 0000.0001) %MON vort_p_mean                  =   1.1652272308690E-04
(PID.TID 0000.0001) %MON vort_p_sd                    =   4.1782230545079E-05
(PID.TID 0000.0001) %MON surfExpan_theta_mean         =   1.7373164635299E-19
(PID.TID 0000.0001) %MON surfExpan_salt_mean          =   2.6059557474885E-19
(PID.TID 0000.0001) // =======================================================
(PID.TID 0000.0001) // End MONITOR dynamic field statistics
(PID.TID 0000.0001) // =======================================================
 cg2d: Sum(rhs),rhsMax =  -2.66752683809641E-03  1.67579253157419E-01
 cg2d: Sum(rhs),rhsMax =  -2.66798705838065E-03  1.67583189066834E-01
 cg2d: Sum(rhs),rhsMax =  -2.66844708946729E-03  1.67587128139898E-01
 cg2d: Sum(rhs),rhsMax =  -2.66890692922254E-03  1.67591070378782E-01
 cg2d: Sum(rhs),rhsMax =  -2.66936657481877E-03  1.67595015785656E-01
 cg2d: Sum(rhs),rhsMax =  -2.66982602353090E-03  1.67598964362660E-01
 cg2d: Sum(rhs),rhsMax =  -2.67028527384748E-03  1.67602916111928E-01
 cg2d: Sum(rhs),rhsMax =  -2.67074432229359E-03  1.67606871035572E-01
 cg2d: Sum(rhs),rhsMax =  -2.67120316734466E-03  1.67610829135689E-01
 cg2d: Sum(rhs),rhsMax =  -2.67166180606122E-03  1.67614790414363E-01
 cg2d: Sum(rhs),rhsMax =  -2.67212023564685E-03  1.67618754873658E-01
 cg2d: Sum(rhs),rhsMax =  -2.67257845435846E-03  1.67622722515629E-01
 cg2d: Sum(rhs),rhsMax =  -2.67303645892018E-03  1.67626693342311E-01
 cg2d: Sum(rhs),rhsMax =  -2.67349424694369E-03  1.67630667355719E-01
 cg2d: Sum(rhs),rhsMax =  -2.67395181647597E-03  1.67634644557863E-01
 cg2d: Sum(rhs),rhsMax =  -2.67440916446627E-03  1.67638624950724E-01
 cg2d: Sum(rhs),rhsMax =  -2.67486628848836E-03  1.67642608536282E-01
 cg2d: Sum(rhs),rhsMax =  -2.67532318583541E-03  1.67646595316487E-01
 cg2d: Sum(rhs),rhsMax =  -2.67577985442579E-03  1.67650585293284E-01
 cg2d: Sum(rhs),rhsMax =  -2.67623629112919E-03  1.67654578468593E-01
 cg2d: Sum(rhs),rhsMax =  -2.67669249358441E-03  1.67658574844332E-01
 cg2d: Sum(rhs),rhsMax =  -2.67714845927974E-03  1.67662574422389E-01
 cg2d: Sum(rhs),rhsMax =  -2.67760418586121E-03  1.67666577204636E-01
 cg2d: Sum(rhs),rhsMax =  -2.67805967041307E-03  1.67670583192947E-01
 cg2d: Sum(rhs),rhsMax =  -2.67851490978791E-03  1.67674592389163E-01
 cg2d: Sum(rhs),rhsMax =  -2.67896990183965E-03  1.67678604795118E-01
 cg2d: Sum(rhs),rhsMax =  -2.67942464377881E-03  1.67682620412624E-01
 cg2d: Sum(rhs),rhsMax =  -2.67987913314660E-03  1.67686639243480E-01
 cg2d: Sum(rhs),rhsMax =  -2.68033336710563E-03  1.67690661289477E-01
 cg2d: Sum(rhs),rhsMax =  -2.68078734319906E-03  1.67694686552376E-01
 cg2d: Sum(rhs),rhsMax =  -2.68124105836657E-03  1.67698715033933E-01
 cg2d: Sum(rhs),rhsMax =  -2.68169451020600E-03  1.67702746735887E-01
 cg2d: Sum(rhs),rhsMax =  -2.68214769597073E-03  1.67706781659956E-01
 cg2d: Sum(rhs),rhsMax =  -2.68260061258909E-03  1.67710819807847E-01
 cg2d: Sum(rhs),rhsMax =  -2.68305325787385E-03  1.67714861181252E-01
 cg2d: Sum(rhs),rhsMax =  -2.68350562842583E-03  1.67718905781850E-01
 cg2d: Sum(rhs),rhsMax =  -2.68395772174551E-03  1.67722953611294E-01
 cg2d: Sum(rhs),rhsMax =  -2.68440953537309E-03  1.67727004671230E-01
 cg2d: Sum(rhs),rhsMax =  -2.68486106659348E-03  1.67731058963287E-01
 cg2d: Sum(rhs),rhsMax =  -2.68531231187803E-03  1.67735116489078E-01
 cg2d: Sum(rhs),rhsMax =  -2.68576326917416E-03  1.67739177250203E-01
 cg2d: Sum(rhs),rhsMax =  -2.68621393515885E-03  1.67743241248238E-01
 cg2d: Sum(rhs),rhsMax =  -2.68666430726596E-03  1.67747308484753E-01
 cg2d: Sum(rhs),rhsMax =  -2.68711438214130E-03  1.67751378961297E-01
 cg2d: Sum(rhs),rhsMax =  -2.68756415787287E-03  1.67755452679411E-01
 cg2d: Sum(rhs),rhsMax =  -2.68801363072512E-03  1.67759529640607E-01
 cg2d: Sum(rhs),rhsMax =  -2.68846279857585E-03  1.67763609846393E-01
 cg2d: Sum(rhs),rhsMax =  -2.68891165795350E-03  1.67767693298258E-01
 cg2d: Sum(rhs),rhsMax =  -2.68936020601320E-03  1.67771779997678E-01
 cg2d: Sum(rhs),rhsMax =  -2.68980843994640E-03  1.67775869946105E-01
 cg2d: Sum(rhs),rhsMax =  -2.69025635701123E-03  1.67779963144989E-01
 cg2d: Sum(rhs),rhsMax =  -2.69070395414028E-03  1.67784059595753E-01
 cg2d: Sum(rhs),rhsMax =  -2.69115122815451E-03  1.67788159299810E-01
 cg2d: Sum(rhs),rhsMax =  -2.69159817599104E-03  1.67792262258556E-01
 cg2d: Sum(rhs),rhsMax =  -2.69204479560619E-03  1.67796368473373E-01
 cg2d: Sum(rhs),rhsMax =  -2.69249108301195E-03  1.67800477945629E-01
 cg2d: Sum(rhs),rhsMax =  -2.69293703556763E-03  1.67804590676669E-01
 cg2d: Sum(rhs),rhsMax =  -2.69338265032814E-03  1.67808706667829E-01
 cg2d: Sum(rhs),rhsMax =  -2.69382792442591E-03  1.67812825920432E-01
 cg2d: Sum(rhs),rhsMax =  -2.69427285452505E-03  1.67816948435782E-01
 cg2d: Sum(rhs),rhsMax =  -2.69471743747873E-03  1.67821074215164E-01
 cg2d: Sum(rhs),rhsMax =  -2.69516167045322E-03  1.67825203259859E-01
 cg2d: Sum(rhs),rhsMax =  -2.69560555047506E-03  1.67829335571120E-01
 cg2d: Sum(rhs),rhsMax =  -2.69604907414549E-03  1.67833471150189E-01
 cg2d: Sum(rhs),rhsMax =  -2.69649223874738E-03  1.67837609998298E-01
 cg2d: Sum(rhs),rhsMax =  -2.69693504089017E-03  1.67841752116659E-01
 cg2d: Sum(rhs),rhsMax =  -2.69737747761254E-03  1.67845897506467E-01
 cg2d: Sum(rhs),rhsMax =  -2.69781954570006E-03  1.67850046168906E-01
 cg2d: Sum(rhs),rhsMax =  -2.69826124185494E-03  1.67854198105141E-01
 cg2d: Sum(rhs),rhsMax =  -2.69870256299783E-03  1.67858353316327E-01
 cg2d: Sum(rhs),rhsMax =  -2.69914350631890E-03  1.67862511803596E-01
 cg2d: Sum(rhs),rhsMax =  -2.69958406804648E-03  1.67866673568073E-01
(PID.TID 0000.0001)      cg2d_init_res =   9.86750898154729E-04
(PID.TID 0000.0001)      cg2d_iters(min,last) =      -1      77
(PID.TID 0000.0001)      cg2d_last_res =   9.30265656031376E-08
(PID.TID 0000.0001) // =======================================================
(PID.TID 0000.0001) // Begin MONITOR dynamic field statistics
(PID.TID 0000.0001) // =======================================================
(PID.TID 0000.0001) %MON time_tsnumber                =                  8424
(PID.TID 0000.0001) %MON time_secondsf                =   1.0108800000000E+07
(PID.TID 0000.0001) %MON dynstat_eta_max              =   2.0291142884127E-01
(PID.TID 0000.0001) %MON dynstat_eta_min              =  -7.6046149654204E-02
(PID.TID 0000.0001) %MON dynstat_eta_mean             =   2.2651154260848E-06
(PID.TID 0000.0001) %MON dynstat_eta_sd               =   8.3034075650768E-02
(PID.TID 0000.0001) %MON dynstat_eta_del2             =   2.4944569453951E-05
(PID.TID 0000.0001) %MON dynstat_uvel_max             =   1.2382355548530E-01
(PID.TID 0000.0001) %MON dynstat_uvel_min             =  -7.5258269032497E-02
(PID.TID 0000.0001) %MON dynstat_uvel_mean            =  -2.4446076916149E-08
(PID.TID 0000.0001) %MON dynstat_uvel_sd              =   3.5087315579664E-02
(PID.TID 0000.0001) %MON dynstat_uvel_del2            =   6.2949271767513E-05
(PID.TID 0000.0001) %MON dynstat_vvel_max             =   7.5772391761347E-02
(PID.TID 0000.0001) %MON dynstat_vvel_min             =  -8.6082364586085E-02
(PID.TID 0000.0001) %MON dynstat_vvel_mean            =   1.2224978309571E-07
(PID.TID 0000.0001) %MON dynstat_vvel_sd              =   3.1191816484115E-02
(PID.TID 0000.0001) %MON dynstat_vvel_del2            =   4.0100223359174E-05
(PID.TID 0000.0001) %MON dynstat_wvel_max             =   1.8232437641127E-08
(PID.TID 0000.0001) %MON dynstat_wvel_min             =  -8.3939345134422E-09
(PID.TID 0000.0001) %MON dynstat_wvel_mean            =   1.5952446119627E-21
(PID.TID 0000.0001) %MON dynstat_wvel_sd              =   6.8081281820006E-09
(PID.TID 0000.0001) %MON dynstat_wvel_del2            =   3.0763711010984E-12
(PID.TID 0000.0001) %MON dynstat_theta_max            =   2.0000000000000E+01
(PID.TID 0000.0001) %MON dynstat_theta_min            =   2.0000000000000E+01
(PID.TID 0000.0001) %MON dynstat_theta_mean           =   2.0000000000000E+01
(PID.TID 0000.0001) %MON dynstat_theta_sd             =   3.8014036363165E-13
(PID.TID 0000.0001) %MON dynstat_theta_del2           =   0.0000000000000E+00
(PID.TID 0000.0001) %MON dynstat_salt_max             =   3.0000000000000E+01
(PID.TID 0000.0001) %MON dynstat_salt_min             =   3.0000000000000E+01
(PID.TID 0000.0001) %MON dynstat_salt_mean            =   2.9999999999999E+01
(PID.TID 0000.0001) %MON dynstat_salt_sd              =   5.5777604757167E-13
(PID.TID 0000.0001) %MON dynstat_salt_del2            =   0.0000000000000E+00
(PID.TID 0000.0001) %MON trAdv_CFL_u_max              =   7.4282090315613E-03
(PID.TID 0000.0001) %MON trAdv_CFL_v_max              =   5.1567881247156E-03
(PID.TID 0000.0001) %MON trAdv_CFL_w_max              =   4.7926699749350E-09
(PID.TID 0000.0001) %MON advcfl_uvel_max              =   7.4294133291182E-03
(PID.TID 0000.0001) %MON advcfl_vvel_max              =   5.1649418751651E-03
(PID.TID 0000.0001) %MON advcfl_wvel_max              =   8.7515700677410E-09
(PID.TID 0000.0001) %MON advcfl_W_hf_max              =   0.0000000000000E+00
(PID.TID 0000.0001) %MON pe_b_mean                    =   7.0686422888502E-06
(PID.TID 0000.0001) %MON ke_max                       =   7.6686691205214E-03
(PID.TID 0000.0001) %MON ke_mean                      =   1.0817598584822E-03
(PID.TID 0000.0001) %MON ke_vol                       =   6.8893493896486E+15
(PID.TID 0000.0001) %MON vort_r_min                   =  -1.1670680523314E-06
(PID.TID 0000.0001) %MON vort_r_max                   =   2.7155352992228E-06
(PID.TID 0000.0001) %MON vort_a_mean                  =   1.0600000000000E-04
(PID.TID 0000.0001) %MON vort_a_sd                    =   3.5495794962787E-06
(PID.TID 0000.0001) %MON vort_p_mean                  =   1.1652272308690E-04
(PID.TID 0000.0001) %MON vort_p_sd                    =   4.1782459100139E-05
(PID.TID 0000.0001) %MON surfExpan_theta_mean         =   3.1897368696971E-20
(PID.TID 0000.0001) %MON surfExpan_salt_mean          =   4.7849842606714E-20
(PID.TID 0000.0001) // =======================================================
(PID.TID 0000.0001) // End MONITOR dynamic field statistics
(PID.TID 0000.0001) // =======================================================
 cg2d: Sum(rhs),rhsMax =  -2.70002424522743E-03  1.67870838610863E-01
 cg2d: Sum(rhs),rhsMax =  -2.70046403489390E-03  1.67875006933056E-01
 cg2d: Sum(rhs),rhsMax =  -2.70090343324282E-03  1.67879178535729E-01
 cg2d: Sum(rhs),rhsMax =  -2.70134243760630E-03  1.67883353419940E-01
 cg2d: Sum(rhs),rhsMax =  -2.70178104436750E-03  1.67887531586736E-01
 cg2d: Sum(rhs),rhsMax =  -2.70221925008740E-03  1.67891713037150E-01
 cg2d: Sum(rhs),rhsMax =  -2.70265705199670E-03  1.67895897772194E-01
 cg2d: Sum(rhs),rhsMax =  -2.70309444665600E-03  1.67900085792866E-01
 cg2d: Sum(rhs),rhsMax =  -2.70353143042470E-03  1.67904277100156E-01
 cg2d: Sum(rhs),rhsMax =  -2.70396800070178E-03  1.67908471695031E-01
 cg2d: Sum(rhs),rhsMax =  -2.70440415318406E-03  1.67912669578443E-01
 cg2d: Sum(rhs),rhsMax =  -2.70483988541924E-03  1.67916870751338E-01
 cg2d: Sum(rhs),rhsMax =  -2.70527519337311E-03  1.67921075214638E-01
 cg2d: Sum(rhs),rhsMax =  -2.70571007365637E-03  1.67925282969248E-01
 cg2d: Sum(rhs),rhsMax =  -2.70614452331305E-03  1.67929494016067E-01
 cg2d: Sum(rhs),rhsMax =  -2.70657853869559E-03  1.67933708355975E-01
 cg2d: Sum(rhs),rhsMax =  -2.70701211677563E-03  1.67937925989832E-01
 cg2d: Sum(rhs),rhsMax =  -2.70744525340753E-03  1.67942146918496E-01
 cg2d: Sum(rhs),rhsMax =  -2.70787794550205E-03  1.67946371142795E-01
 cg2d: Sum(rhs),rhsMax =  -2.70831018942382E-03  1.67950598663544E-01
 cg2d: Sum(rhs),rhsMax =  -2.70874198171727E-03  1.67954829481558E-01
 cg2d: Sum(rhs),rhsMax =  -2.70917331930625E-03  1.67959063597622E-01
 cg2d: Sum(rhs),rhsMax =  -2.70960419828107E-03  1.67963301012513E-01
 cg2d: Sum(rhs),rhsMax =  -2.71003461483672E-03  1.67967541726983E-01
 cg2d: Sum(rhs),rhsMax =  -2.71046456606549E-03  1.67971785741785E-01
 cg2d: Sum(rhs),rhsMax =  -2.71089404804172E-03  1.67976033057641E-01
 cg2d: Sum(rhs),rhsMax =  -2.71132305735058E-03  1.67980283675278E-01
 cg2d: Sum(rhs),rhsMax =  -2.71175159005883E-03  1.67984537595382E-01
 cg2d: Sum(rhs),rhsMax =  -2.71217964304650E-03  1.67988794818648E-01
 cg2d: Sum(rhs),rhsMax =  -2.71260721231063E-03  1.67993055345743E-01
 cg2d: Sum(rhs),rhsMax =  -2.71303429429547E-03  1.67997319177329E-01
 cg2d: Sum(rhs),rhsMax =  -2.71346088540004E-03  1.68001586314035E-01
 cg2d: Sum(rhs),rhsMax =  -2.71388698222075E-03  1.68005856756493E-01
 cg2d: Sum(rhs),rhsMax =  -2.71431258067791E-03  1.68010130505314E-01
 cg2d: Sum(rhs),rhsMax =  -2.71473767707761E-03  1.68014407561095E-01
 cg2d: Sum(rhs),rhsMax =  -2.71516226795168E-03  1.68018687924419E-01
 cg2d: Sum(rhs),rhsMax =  -2.71558634924294E-03  1.68022971595846E-01
 cg2d: Sum(rhs),rhsMax =  -2.71600991755802E-03  1.68027258575934E-01
 cg2d: Sum(rhs),rhsMax =  -2.71643296924911E-03  1.68031548865222E-01
 cg2d: Sum(rhs),rhsMax =  -2.71685549995103E-03  1.68035842464226E-01
 cg2d: Sum(rhs),rhsMax =  -2.71727750606032E-03  1.68040139373456E-01
 cg2d: Sum(rhs),rhsMax =  -2.71769898408195E-03  1.68044439593408E-01
 cg2d: Sum(rhs),rhsMax =  -2.71811993009696E-03  1.68048743124559E-01
 cg2d: Sum(rhs),rhsMax =  -2.71854033999575E-03  1.68053049967371E-01
 cg2d: Sum(rhs),rhsMax =  -2.71896020992039E-03  1.68057360122293E-01
 cg2d: Sum(rhs),rhsMax =  -2.71937953614150E-03  1.68061673589760E-01
 cg2d: Sum(rhs),rhsMax =  -2.71979831505178E-03  1.68065990370198E-01
 cg2d: Sum(rhs),rhsMax =  -2.72021654249392E-03  1.68070310464001E-01
 cg2d: Sum(rhs),rhsMax =  -2.72063421416351E-03  1.68074633871568E-01
 cg2d: Sum(rhs),rhsMax =  -2.72105132681011E-03  1.68078960593268E-01
 cg2d: Sum(rhs),rhsMax =  -2.72146787582544E-03  1.68083290629470E-01
 cg2d: Sum(rhs),rhsMax =  -2.72188385798500E-03  1.68087623980518E-01
 cg2d: Sum(rhs),rhsMax =  -2.72229926849074E-03  1.68091960646742E-01
 cg2d: Sum(rhs),rhsMax =  -2.72271410342893E-03  1.68096300628461E-01
 cg2d: Sum(rhs),rhsMax =  -2.72312835902071E-03  1.68100643925976E-01
 cg2d: Sum(rhs),rhsMax =  -2.72354203126267E-03  1.68104990539578E-01
 cg2d: Sum(rhs),rhsMax =  -2.72395511609773E-03  1.68109340469544E-01
 cg2d: Sum(rhs),rhsMax =  -2.72436760916203E-03  1.68113693716129E-01
 cg2d: Sum(rhs),rhsMax =  -2.72477950663886E-03  1.68118050279576E-01
 cg2d: Sum(rhs),rhsMax =  -2.72519080448488E-03  1.68122410160124E-01
 cg2d: Sum(rhs),rhsMax =  -2.72560149869920E-03  1.68126773357980E-01
 cg2d: Sum(rhs),rhsMax =  -2.72601158450497E-03  1.68131139873353E-01
 cg2d: Sum(rhs),rhsMax =  -2.72642105811711E-03  1.68135509706429E-01
 cg2d: Sum(rhs),rhsMax =  -2.72682991523436E-03  1.68139882857373E-01
 cg2d: Sum(rhs),rhsMax =  -2.72723815201605E-03  1.68144259326352E-01
 cg2d: Sum(rhs),rhsMax =  -2.72764576326303E-03  1.68148639113511E-01
 cg2d: Sum(rhs),rhsMax =  -2.72805274576092E-03  1.68153022218976E-01
 cg2d: Sum(rhs),rhsMax =  -2.72845909505569E-03  1.68157408642861E-01
 cg2d: Sum(rhs),rhsMax =  -2.72886480663285E-03  1.68161798385270E-01
 cg2d: Sum(rhs),rhsMax =  -2.72926987640376E-03  1.68166191446287E-01
 cg2d: Sum(rhs),rhsMax =  -2.72967429971373E-03  1.68170587825991E-01
 cg2d: Sum(rhs),rhsMax =  -2.73007807283074E-03  1.68174987524432E-01
(PID.TID 0000.0001)      cg2d_init_res =   9.75805796741260E-04
(PID.TID 0000.0001)      cg2d_iters(min,last) =      -1      77
(PID.TID 0000.0001)      cg2d_last_res =   8.92198717219702E-08
(PID.TID 0000.0001) // =======================================================
(PID.TID 0000.0001) // Begin MONITOR dynamic field statistics
(PID.TID 0000.0001) // =======================================================
(PID.TID 0000.0001) %MON time_tsnumber                =                  8496
(PID.TID 0000.0001) %MON time_secondsf                =   1.0195200000000E+07
(PID.TID 0000.0001) %MON dynstat_eta_max              =   2.0440605887950E-01
(PID.TID 0000.0001) %MON dynstat_eta_min              =  -7.6512246375286E-02
(PID.TID 0000.0001) %MON dynstat_eta_mean             =   2.2948768095075E-06
(PID.TID 0000.0001) %MON dynstat_eta_sd               =   8.3588111702470E-02
(PID.TID 0000.0001) %MON dynstat_eta_del2             =   2.5005621442571E-05
(PID.TID 0000.0001) %MON dynstat_uvel_max             =   1.2409560704901E-01
(PID.TID 0000.0001) %MON dynstat_uvel_min             =  -7.5669025391352E-02
(PID.TID 0000.0001) %MON dynstat_uvel_mean            =  -3.0934973316607E-08
(PID.TID 0000.0001) %MON dynstat_uvel_sd              =   3.5279593825489E-02
(PID.TID 0000.0001) %MON dynstat_uvel_del2            =   6.3059121628286E-05
(PID.TID 0000.0001) %MON dynstat_vvel_max             =   7.6240727677274E-02
(PID.TID 0000.0001) %MON dynstat_vvel_min             =  -8.6800597560822E-02
(PID.TID 0000.0001) %MON dynstat_vvel_mean            =   1.2456937449586E-07
(PID.TID 0000.0001) %MON dynstat_vvel_sd              =   3.1392470250566E-02
(PID.TID 0000.0001) %MON dynstat_vvel_del2            =   4.0039636963016E-05
(PID.TID 0000.0001) %MON dynstat_wvel_max             =   1.8234863427497E-08
(PID.TID 0000.0001) %MON dynstat_wvel_min             =  -8.0190708697774E-09
(PID.TID 0000.0001) %MON dynstat_wvel_mean            =  -5.6735211728665E-21
(PID.TID 0000.0001) %MON dynstat_wvel_sd              =   6.7897356902286E-09
(PID.TID 0000.0001) %MON dynstat_wvel_del2            =   3.0507451123656E-12
(PID.TID 0000.0001) %MON dynstat_theta_max            =   2.0000000000000E+01
(PID.TID 0000.0001) %MON dynstat_theta_min            =   2.0000000000000E+01
(PID.TID 0000.0001) %MON dynstat_theta_mean           =   2.0000000000000E+01
(PID.TID 0000.0001) %MON dynstat_theta_sd             =   3.8014036363165E-13
(PID.TID 0000.0001) %MON dynstat_theta_del2           =   0.0000000000000E+00
(PID.TID 0000.0001) %MON dynstat_salt_max             =   3.0000000000000E+01
(PID.TID 0000.0001) %MON dynstat_salt_min             =   3.0000000000000E+01
(PID.TID 0000.0001) %MON dynstat_salt_mean            =   2.9999999999999E+01
(PID.TID 0000.0001) %MON dynstat_salt_sd              =   5.5777604757167E-13
(PID.TID 0000.0001) %MON dynstat_salt_del2            =   0.0000000000000E+00
(PID.TID 0000.0001) %MON trAdv_CFL_u_max              =   7.4445319204031E-03
(PID.TID 0000.0001) %MON trAdv_CFL_v_max              =   5.1998134547597E-03
(PID.TID 0000.0001) %MON trAdv_CFL_w_max              =   4.7933135848956E-09
(PID.TID 0000.0001) %MON advcfl_uvel_max              =   7.4457364229403E-03
(PID.TID 0000.0001) %MON advcfl_vvel_max              =   5.2080358536493E-03
(PID.TID 0000.0001) %MON advcfl_wvel_max              =   8.7527344451984E-09
(PID.TID 0000.0001) %MON advcfl_W_hf_max              =   0.0000000000000E+00
(PID.TID 0000.0001) %MON pe_b_mean                    =   7.1632865207935E-06
(PID.TID 0000.0001) %MON ke_max                       =   7.7012491386305E-03
(PID.TID 0000.0001) %MON ke_mean                      =   1.0945638986043E-03
(PID.TID 0000.0001) %MON ke_vol                       =   6.8893493896486E+15
(PID.TID 0000.0001) %MON vort_r_min                   =  -1.1619526125030E-06
(PID.TID 0000.0001) %MON vort_r_max                   =   2.7207583001303E-06
(PID.TID 0000.0001) %MON vort_a_mean                  =   1.0600000000000E-04
(PID.TID 0000.0001) %MON vort_a_sd                    =   3.5497199574563E-06
(PID.TID 0000.0001) %MON vort_p_mean                  =   1.1652272308690E-04
(PID.TID 0000.0001) %MON vort_p_sd                    =   4.1782684107089E-05
(PID.TID 0000.0001) %MON surfExpan_theta_mean         =  -1.1344193732536E-19
(PID.TID 0000.0001) %MON surfExpan_salt_mean          =  -1.7016464287028E-19
(PID.TID 0000.0001) // =======================================================
(PID.TID 0000.0001) // End MONITOR dynamic field statistics
(PID.TID 0000.0001) // =======================================================
 cg2d: Sum(rhs),rhsMax =  -2.73048119056661E-03  1.68179390541657E-01
 cg2d: Sum(rhs),rhsMax =  -2.73088364946894E-03  1.68183796877697E-01
 cg2d: Sum(rhs),rhsMax =  -2.73128544464829E-03  1.68188206532565E-01
 cg2d: Sum(rhs),rhsMax =  -2.73168657148382E-03  1.68192619506267E-01
 cg2d: Sum(rhs),rhsMax =  -2.73208702594598E-03  1.68197035798781E-01
 cg2d: Sum(rhs),rhsMax =  -2.73248680337308E-03  1.68201455410087E-01
 cg2d: Sum(rhs),rhsMax =  -2.73288589972845E-03  1.68205878340142E-01
 cg2d: Sum(rhs),rhsMax =  -2.73328431008970E-03  1.68210304588890E-01
 cg2d: Sum(rhs),rhsMax =  -2.73368203010977E-03  1.68214734156259E-01
 cg2d: Sum(rhs),rhsMax =  -2.73407905514876E-03  1.68219167042164E-01
 cg2d: Sum(rhs),rhsMax =  -2.73447538104418E-03  1.68223603246513E-01
 cg2d: Sum(rhs),rhsMax =  -2.73487100295077E-03  1.68228042769194E-01
 cg2d: Sum(rhs),rhsMax =  -2.73526591615499E-03  1.68232485610069E-01
 cg2d: Sum(rhs),rhsMax =  -2.73566011629595E-03  1.68236931769009E-01
 cg2d: Sum(rhs),rhsMax =  -2.73605359912249E-03  1.68241381245855E-01
 cg2d: Sum(rhs),rhsMax =  -2.73644635898927E-03  1.68245834040436E-01
 cg2d: Sum(rhs),rhsMax =  -2.73683839260245E-03  1.68250290152576E-01
 cg2d: Sum(rhs),rhsMax =  -2.73722969437297E-03  1.68254749582070E-01
 cg2d: Sum(rhs),rhsMax =  -2.73762026009264E-03  1.68259212328715E-01
 cg2d: Sum(rhs),rhsMax =  -2.73801008460890E-03  1.68263678392281E-01
 cg2d: Sum(rhs),rhsMax =  -2.73839916331654E-03  1.68268147772531E-01
 cg2d: Sum(rhs),rhsMax =  -2.73878749192959E-03  1.68272620469212E-01
 cg2d: Sum(rhs),rhsMax =  -2.73917506550402E-03  1.68277096482058E-01
 cg2d: Sum(rhs),rhsMax =  -2.73956187879891E-03  1.68281575810788E-01
 cg2d: Sum(rhs),rhsMax =  -2.73994792748940E-03  1.68286058455103E-01
 cg2d: Sum(rhs),rhsMax =  -2.74033320656851E-03  1.68290544414706E-01
 cg2d: Sum(rhs),rhsMax =  -2.74071771171365E-03  1.68295033689264E-01
 cg2d: Sum(rhs),rhsMax =  -2.74110143750965E-03  1.68299526278443E-01
 cg2d: Sum(rhs),rhsMax =  -2.74148437917370E-03  1.68304022181890E-01
 cg2d: Sum(rhs),rhsMax =  -2.74186653204011E-03  1.68308521399252E-01
 cg2d: Sum(rhs),rhsMax =  -2.74224789116309E-03  1.68313023930142E-01
 cg2d: Sum(rhs),rhsMax =  -2.74262845143216E-03  1.68317529774169E-01
 cg2d: Sum(rhs),rhsMax =  -2.74300820801672E-03  1.68322038930929E-01
 cg2d: Sum(rhs),rhsMax =  -2.74338715580940E-03  1.68326551400003E-01
 cg2d: Sum(rhs),rhsMax =  -2.74376529030720E-03  1.68331067180956E-01
 cg2d: Sum(rhs),rhsMax =  -2.74414260612392E-03  1.68335586273344E-01
 cg2d: Sum(rhs),rhsMax =  -2.74451909831396E-03  1.68340108676705E-01
 cg2d: Sum(rhs),rhsMax =  -2.74489476215123E-03  1.68344634390568E-01
 cg2d: Sum(rhs),rhsMax =  -2.74526959222569E-03  1.68349163414439E-01
 cg2d: Sum(rhs),rhsMax =  -2.74564358361879E-03  1.68353695747820E-01
 cg2d: Sum(rhs),rhsMax =  -2.74601673126493E-03  1.68358231390194E-01
 cg2d: Sum(rhs),rhsMax =  -2.74638902996482E-03  1.68362770341033E-01
 cg2d: Sum(rhs),rhsMax =  -2.74676047498822E-03  1.68367312599796E-01
 cg2d: Sum(rhs),rhsMax =  -2.74713106079721E-03  1.68371858165925E-01
 cg2d: Sum(rhs),rhsMax =  -2.74750078210919E-03  1.68376407038848E-01
 cg2d: Sum(rhs),rhsMax =  -2.74786963421816E-03  1.68380959217986E-01
 cg2d: Sum(rhs),rhsMax =  -2.74823761165414E-03  1.68385514702735E-01
 cg2d: Sum(rhs),rhsMax =  -2.74860470951987E-03  1.68390073492495E-01
 cg2d: Sum(rhs),rhsMax =  -2.74897092214692E-03  1.68394635586634E-01
 cg2d: Sum(rhs),rhsMax =  -2.74933624461326E-03  1.68399200984517E-01
 cg2d: Sum(rhs),rhsMax =  -2.74970067181227E-03  1.68403769685490E-01
 cg2d: Sum(rhs),rhsMax =  -2.75006419771730E-03  1.68408341688888E-01
 cg2d: Sum(rhs),rhsMax =  -2.75051268854374E-03  1.68412916311549E-01
 cg2d: Sum(rhs),rhsMax =  -2.75096016238127E-03  1.68417494888973E-01
 cg2d: Sum(rhs),rhsMax =  -2.75140655443874E-03  1.68422076811444E-01
 cg2d: Sum(rhs),rhsMax =  -2.75185184771438E-03  1.68426662024067E-01
 cg2d: Sum(rhs),rhsMax =  -2.75229602405551E-03  1.68431250529795E-01
 cg2d: Sum(rhs),rhsMax =  -2.75273907598458E-03  1.68435842331579E-01
 cg2d: Sum(rhs),rhsMax =  -2.75318100363469E-03  1.68440437431100E-01
 cg2d: Sum(rhs),rhsMax =  -2.75362180794358E-03  1.68445035828396E-01
 cg2d: Sum(rhs),rhsMax =  -2.75406148661358E-03  1.68449637522380E-01
 cg2d: Sum(rhs),rhsMax =  -2.75450003400409E-03  1.68454242511668E-01
 cg2d: Sum(rhs),rhsMax =  -2.75493744341097E-03  1.68458850795066E-01
 cg2d: Sum(rhs),rhsMax =  -2.75537370604114E-03  1.68463462371647E-01
 cg2d: Sum(rhs),rhsMax =  -2.75580881538718E-03  1.68468077240651E-01
 cg2d: Sum(rhs),rhsMax =  -2.75624276521897E-03  1.68472695401356E-01
 cg2d: Sum(rhs),rhsMax =  -2.75667554983387E-03  1.68477316852975E-01
 cg2d: Sum(rhs),rhsMax =  -2.75710716338506E-03  1.68481941594658E-01
 cg2d: Sum(rhs),rhsMax =  -2.75753760012255E-03  1.68486569625479E-01
 cg2d: Sum(rhs),rhsMax =  -2.75796685434507E-03  1.68491200944493E-01
 cg2d: Sum(rhs),rhsMax =  -2.75839491944665E-03  1.68495835550748E-01
 cg2d: Sum(rhs),rhsMax =  -2.75882178986397E-03  1.68500473443301E-01
(PID.TID 0000.0001)      cg2d_init_res =   9.65284572391655E-04
(PID.TID 0000.0001)      cg2d_iters(min,last) =      -1      76
(PID.TID 0000.0001)      cg2d_last_res =   9.86081933409619E-08
(PID.TID 0000.0001) // =======================================================
(PID.TID 0000.0001) // Begin MONITOR dynamic field statistics
(PID.TID 0000.0001) // =======================================================
(PID.TID 0000.0001) %MON time_tsnumber                =                  8568
(PID.TID 0000.0001) %MON time_secondsf                =   1.0281600000000E+07
(PID.TID 0000.0001) %MON dynstat_eta_max              =   2.0589684873019E-01
(PID.TID 0000.0001) %MON dynstat_eta_min              =  -7.6975555438413E-02
(PID.TID 0000.0001) %MON dynstat_eta_mean             =   2.3235453460415E-06
(PID.TID 0000.0001) %MON dynstat_eta_sd               =   8.4142405800365E-02
(PID.TID 0000.0001) %MON dynstat_eta_del2             =   2.5066042270556E-05
(PID.TID 0000.0001) %MON dynstat_uvel_max             =   1.2436700282756E-01
(PID.TID 0000.0001) %MON dynstat_uvel_min             =  -7.6095177998656E-02
(PID.TID 0000.0001) %MON dynstat_uvel_mean            =  -3.6408565048693E-08
(PID.TID 0000.0001) %MON dynstat_uvel_sd              =   3.5473574768374E-02
(PID.TID 0000.0001) %MON dynstat_uvel_del2            =   6.3160814315640E-05
(PID.TID 0000.0001) %MON dynstat_vvel_max             =   7.6696951815810E-02
(PID.TID 0000.0001) %MON dynstat_vvel_min             =  -8.7525143057785E-02
(PID.TID 0000.0001) %MON dynstat_vvel_mean            =   1.2696284978894E-07
(PID.TID 0000.0001) %MON dynstat_vvel_sd              =   3.1592021061363E-02
(PID.TID 0000.0001) %MON dynstat_vvel_del2            =   3.9992359935206E-05
(PID.TID 0000.0001) %MON dynstat_wvel_max             =   1.8241699819191E-08
(PID.TID 0000.0001) %MON dynstat_wvel_min             =  -7.7491220016964E-09
(PID.TID 0000.0001) %MON dynstat_wvel_mean            =  -1.0574894481073E-21
(PID.TID 0000.0001) %MON dynstat_wvel_sd              =   6.7686625868108E-09
(PID.TID 0000.0001) %MON dynstat_wvel_del2            =   3.0256850177306E-12
(PID.TID 0000.0001) %MON dynstat_theta_max            =   2.0000000000000E+01
(PID.TID 0000.0001) %MON dynstat_theta_min            =   2.0000000000000E+01
(PID.TID 0000.0001) %MON dynstat_theta_mean           =   2.0000000000000E+01
(PID.TID 0000.0001) %MON dynstat_theta_sd             =   3.8014036363165E-13
(PID.TID 0000.0001) %MON dynstat_theta_del2           =   0.0000000000000E+00
(PID.TID 0000.0001) %MON dynstat_salt_max             =   3.0000000000000E+01
(PID.TID 0000.0001) %MON dynstat_salt_min             =   3.0000000000000E+01
(PID.TID 0000.0001) %MON dynstat_salt_mean            =   2.9999999999999E+01
(PID.TID 0000.0001) %MON dynstat_salt_sd              =   5.5777604757167E-13
(PID.TID 0000.0001) %MON dynstat_salt_del2            =   0.0000000000000E+00
(PID.TID 0000.0001) %MON trAdv_CFL_u_max              =   7.4608127461106E-03
(PID.TID 0000.0001) %MON trAdv_CFL_v_max              =   5.2432176380546E-03
(PID.TID 0000.0001) %MON trAdv_CFL_w_max              =   4.7951264312725E-09
(PID.TID 0000.0001) %MON advcfl_uvel_max              =   7.4620201696533E-03
(PID.TID 0000.0001) %MON advcfl_vvel_max              =   5.2515085834671E-03
(PID.TID 0000.0001) %MON advcfl_wvel_max              =   8.7560159132117E-09
(PID.TID 0000.0001) %MON advcfl_W_hf_max              =   0.0000000000000E+00
(PID.TID 0000.0001) %MON pe_b_mean                    =   7.2586046775139E-06
(PID.TID 0000.0001) %MON ke_max                       =   7.7354219014563E-03
(PID.TID 0000.0001) %MON ke_mean                      =   1.1074688355700E-03
(PID.TID 0000.0001) %MON ke_vol                       =   6.8893493896486E+15
(PID.TID 0000.0001) %MON vort_r_min                   =  -1.1559819159341E-06
(PID.TID 0000.0001) %MON vort_r_max                   =   2.7260778369950E-06
(PID.TID 0000.0001) %MON vort_a_mean                  =   1.0600000000000E-04
(PID.TID 0000.0001) %MON vort_a_sd                    =   3.5498627319853E-06
(PID.TID 0000.0001) %MON vort_p_mean                  =   1.1652272308690E-04
(PID.TID 0000.0001) %MON vort_p_sd                    =   4.1782905570252E-05
(PID.TID 0000.0001) %MON surfExpan_theta_mean         =  -2.1168173386993E-20
(PID.TID 0000.0001) %MON surfExpan_salt_mean          =  -3.1747207332147E-20
(PID.TID 0000.0001) // =======================================================
(PID.TID 0000.0001) // End MONITOR dynamic field statistics
(PID.TID 0000.0001) // =======================================================
 cg2d: Sum(rhs),rhsMax =  -2.75924745899007E-03  1.68505114621221E-01
 cg2d: Sum(rhs),rhsMax =  -2.75967192042362E-03  1.68509759083559E-01
 cg2d: Sum(rhs),rhsMax =  -2.76009516853922E-03  1.68514406829365E-01
 cg2d: Sum(rhs),rhsMax =  -2.76051719657664E-03  1.68519057857662E-01
 cg2d: Sum(rhs),rhsMax =  -2.76093799935856E-03  1.68523712167454E-01
 cg2d: Sum(rhs),rhsMax =  -2.76135756996627E-03  1.68528369757730E-01
 cg2d: Sum(rhs),rhsMax =  -2.76177590298799E-03  1.68533030627460E-01
 cg2d: Sum(rhs),rhsMax =  -2.76219299139848E-03  1.68537694775606E-01
 cg2d: Sum(rhs),rhsMax =  -2.76260882906063E-03  1.68542362201114E-01
 cg2d: Sum(rhs),rhsMax =  -2.76302341079083E-03  1.68547032902920E-01
 cg2d: Sum(rhs),rhsMax =  -2.76343672934027E-03  1.68551706879949E-01
 cg2d: Sum(rhs),rhsMax =  -2.76384877820698E-03  1.68556384131117E-01
 cg2d: Sum(rhs),rhsMax =  -2.76425955233486E-03  1.68561064655322E-01
 cg2d: Sum(rhs),rhsMax =  -2.76466904467001E-03  1.68565748451453E-01
 cg2d: Sum(rhs),rhsMax =  -2.76507724908001E-03  1.68570435518386E-01
 cg2d: Sum(rhs),rhsMax =  -2.76548415957358E-03  1.68575125854976E-01
 cg2d: Sum(rhs),rhsMax =  -2.76588976989286E-03  1.68579819460079E-01
 cg2d: Sum(rhs),rhsMax =  -2.76629407358423E-03  1.68584516332521E-01
 cg2d: Sum(rhs),rhsMax =  -2.76669706410739E-03  1.68589216471130E-01
 cg2d: Sum(rhs),rhsMax =  -2.76709873581421E-03  1.68593919874711E-01
 cg2d: Sum(rhs),rhsMax =  -2.76749908190248E-03  1.68598626542065E-01
 cg2d: Sum(rhs),rhsMax =  -2.76789809660552E-03  1.68603336471964E-01
 cg2d: Sum(rhs),rhsMax =  -2.76829577308448E-03  1.68608049663188E-01
 cg2d: Sum(rhs),rhsMax =  -2.76869210564220E-03  1.68612766114499E-01
 cg2d: Sum(rhs),rhsMax =  -2.76908708722252E-03  1.68617485824628E-01
 cg2d: Sum(rhs),rhsMax =  -2.76948071196402E-03  1.68622208792325E-01
 cg2d: Sum(rhs),rhsMax =  -2.76987297361748E-03  1.68626935016297E-01
 cg2d: Sum(rhs),rhsMax =  -2.77026386547136E-03  1.68631664495258E-01
 cg2d: Sum(rhs),rhsMax =  -2.77065338166418E-03  1.68636397227899E-01
 cg2d: Sum(rhs),rhsMax =  -2.77104151562202E-03  1.68641133212905E-01
 cg2d: Sum(rhs),rhsMax =  -2.77142826110094E-03  1.68645872448945E-01
 cg2d: Sum(rhs),rhsMax =  -2.77181361150352E-03  1.68650614934677E-01
 cg2d: Sum(rhs),rhsMax =  -2.77219756102774E-03  1.68655360668739E-01
 cg2d: Sum(rhs),rhsMax =  -2.77258010328906E-03  1.68660109649767E-01
 cg2d: Sum(rhs),rhsMax =  -2.77296123145357E-03  1.68664861876381E-01
 cg2d: Sum(rhs),rhsMax =  -2.77334093983445E-03  1.68669617347188E-01
 cg2d: Sum(rhs),rhsMax =  -2.77371922131298E-03  1.68674376060776E-01
 cg2d: Sum(rhs),rhsMax =  -2.77409607029412E-03  1.68679138015735E-01
 cg2d: Sum(rhs),rhsMax =  -2.77447147997226E-03  1.68683903210631E-01
 cg2d: Sum(rhs),rhsMax =  -2.77484544402582E-03  1.68688671644017E-01
 cg2d: Sum(rhs),rhsMax =  -2.77521795653994E-03  1.68693443314443E-01
 cg2d: Sum(rhs),rhsMax =  -2.77558901136589E-03  1.68698218220437E-01
 cg2d: Sum(rhs),rhsMax =  -2.77595860119810E-03  1.68702996360521E-01
 cg2d: Sum(rhs),rhsMax =  -2.77632672075415E-03  1.68707777733202E-01
 cg2d: Sum(rhs),rhsMax =  -2.77669336298922E-03  1.68712562336969E-01
 cg2d: Sum(rhs),rhsMax =  -2.77705852216078E-03  1.68717350170313E-01
 cg2d: Sum(rhs),rhsMax =  -2.77742219151282E-03  1.68722141231700E-01
 cg2d: Sum(rhs),rhsMax =  -2.77778436490538E-03  1.68726935519588E-01
 cg2d: Sum(rhs),rhsMax =  -2.77814503585703E-03  1.68731733032425E-01
 cg2d: Sum(rhs),rhsMax =  -2.77850419862631E-03  1.68736533768641E-01
 cg2d: Sum(rhs),rhsMax =  -2.77886184688967E-03  1.68741337726654E-01
 cg2d: Sum(rhs),rhsMax =  -2.77921797364410E-03  1.68746144904881E-01
 cg2d: Sum(rhs),rhsMax =  -2.77957257304957E-03  1.68750955301714E-01
 cg2d: Sum(rhs),rhsMax =  -2.77992563912723E-03  1.68755768915533E-01
 cg2d: Sum(rhs),rhsMax =  -2.78027716536900E-03  1.68760585744723E-01
 cg2d: Sum(rhs),rhsMax =  -2.78062714543898E-03  1.68765405787633E-01
 cg2d: Sum(rhs),rhsMax =  -2.78097557351497E-03  1.68770229042614E-01
 cg2d: Sum(rhs),rhsMax =  -2.78132244319805E-03  1.68775055508004E-01
 cg2d: Sum(rhs),rhsMax =  -2.78166774812205E-03  1.68779885182128E-01
 cg2d: Sum(rhs),rhsMax =  -2.78201148216542E-03  1.68784718063293E-01
 cg2d: Sum(rhs),rhsMax =  -2.78235363932809E-03  1.68789554149802E-01
 cg2d: Sum(rhs),rhsMax =  -2.78269421341312E-03  1.68794393439937E-01
 cg2d: Sum(rhs),rhsMax =  -2.78303319806215E-03  1.68799235931985E-01
 cg2d: Sum(rhs),rhsMax =  -2.78337058716223E-03  1.68804081624201E-01
 cg2d: Sum(rhs),rhsMax =  -2.78370637526964E-03  1.68808930514840E-01
 cg2d: Sum(rhs),rhsMax =  -2.78404055543340E-03  1.68813782602138E-01
 cg2d: Sum(rhs),rhsMax =  -2.78437312172508E-03  1.68818637884328E-01
 cg2d: Sum(rhs),rhsMax =  -2.78470406836114E-03  1.68823496359623E-01
 cg2d: Sum(rhs),rhsMax =  -2.78503338952858E-03  1.68828358026230E-01
 cg2d: Sum(rhs),rhsMax =  -2.78536107836817E-03  1.68833222882337E-01
 cg2d: Sum(rhs),rhsMax =  -2.78568712997139E-03  1.68838090926126E-01
 cg2d: Sum(rhs),rhsMax =  -2.78601153750490E-03  1.68842962155768E-01
(PID.TID 0000.0001)      cg2d_init_res =   9.55166820912697E-04
(PID.TID 0000.0001)      cg2d_iters(min,last) =      -1      76
(PID.TID 0000.0001)      cg2d_last_res =   9.26825850652663E-08
(PID.TID 0000.0001) // =======================================================
(PID.TID 0000.0001) // Begin MONITOR dynamic field statistics
(PID.TID 0000.0001) // =======================================================
(PID.TID 0000.0001) %MON time_tsnumber                =                  8640
(PID.TID 0000.0001) %MON time_secondsf                =   1.0368000000000E+07
(PID.TID 0000.0001) %MON dynstat_eta_max              =   2.0738318780525E-01
(PID.TID 0000.0001) %MON dynstat_eta_min              =  -7.7435496354563E-02
(PID.TID 0000.0001) %MON dynstat_eta_mean             =   2.3511272477290E-06
(PID.TID 0000.0001) %MON dynstat_eta_sd               =   8.4696515513498E-02
(PID.TID 0000.0001) %MON dynstat_eta_del2             =   2.5126147229507E-05
(PID.TID 0000.0001) %MON dynstat_uvel_max             =   1.2464089602241E-01
(PID.TID 0000.0001) %MON dynstat_uvel_min             =  -7.6540574100036E-02
(PID.TID 0000.0001) %MON dynstat_uvel_mean            =  -4.0810590492212E-08
(PID.TID 0000.0001) %MON dynstat_uvel_sd              =   3.5669350254079E-02
(PID.TID 0000.0001) %MON dynstat_uvel_del2            =   6.3255199384096E-05
(PID.TID 0000.0001) %MON dynstat_vvel_max             =   7.7133147549266E-02
(PID.TID 0000.0001) %MON dynstat_vvel_min             =  -8.8260241273057E-02
(PID.TID 0000.0001) %MON dynstat_vvel_mean            =   1.2927720959646E-07
(PID.TID 0000.0001) %MON dynstat_vvel_sd              =   3.1790298384398E-02
(PID.TID 0000.0001) %MON dynstat_vvel_del2            =   3.9957954590395E-05
(PID.TID 0000.0001) %MON dynstat_wvel_max             =   1.8236525817338E-08
(PID.TID 0000.0001) %MON dynstat_wvel_min             =  -7.9592871360364E-09
(PID.TID 0000.0001) %MON dynstat_wvel_mean            =  -1.7037394981243E-20
(PID.TID 0000.0001) %MON dynstat_wvel_sd              =   6.7447090966285E-09
(PID.TID 0000.0001) %MON dynstat_wvel_del2            =   2.9974043113220E-12
(PID.TID 0000.0001) %MON dynstat_theta_max            =   2.0000000000000E+01
(PID.TID 0000.0001) %MON dynstat_theta_min            =   2.0000000000000E+01
(PID.TID 0000.0001) %MON dynstat_theta_mean           =   2.0000000000000E+01
(PID.TID 0000.0001) %MON dynstat_theta_sd             =   3.8014036363165E-13
(PID.TID 0000.0001) %MON dynstat_theta_del2           =   0.0000000000000E+00
(PID.TID 0000.0001) %MON dynstat_salt_max             =   3.0000000000000E+01
(PID.TID 0000.0001) %MON dynstat_salt_min             =   3.0000000000000E+01
(PID.TID 0000.0001) %MON dynstat_salt_mean            =   2.9999999999999E+01
(PID.TID 0000.0001) %MON dynstat_salt_sd              =   5.5777604757167E-13
(PID.TID 0000.0001) %MON dynstat_salt_del2            =   0.0000000000000E+00
(PID.TID 0000.0001) %MON trAdv_CFL_u_max              =   7.4772408672650E-03
(PID.TID 0000.0001) %MON trAdv_CFL_v_max              =   5.2869507885994E-03
(PID.TID 0000.0001) %MON trAdv_CFL_w_max              =   4.7937837889683E-09
(PID.TID 0000.0001) %MON advcfl_uvel_max              =   7.4784537613449E-03
(PID.TID 0000.0001) %MON advcfl_vvel_max              =   5.2956144763834E-03
(PID.TID 0000.0001) %MON advcfl_wvel_max              =   8.7535323923221E-09
(PID.TID 0000.0001) %MON advcfl_W_hf_max              =   0.0000000000000E+00
(PID.TID 0000.0001) %MON pe_b_mean                    =   7.3545208027404E-06
(PID.TID 0000.0001) %MON ke_max                       =   7.7701673377751E-03
(PID.TID 0000.0001) %MON ke_mean                      =   1.1204728881257E-03
(PID.TID 0000.0001) %MON ke_vol                       =   6.8893493896486E+15
(PID.TID 0000.0001) %MON vort_r_min                   =  -1.1497527314863E-06
(PID.TID 0000.0001) %MON vort_r_max                   =   2.7315430527491E-06
(PID.TID 0000.0001) %MON vort_a_mean                  =   1.0600000000000E-04
(PID.TID 0000.0001) %MON vort_a_sd                    =   3.5500083899468E-06
(PID.TID 0000.0001) %MON vort_p_mean                  =   1.1652272308690E-04
(PID.TID 0000.0001) %MON vort_p_sd                    =   4.1783123417414E-05
(PID.TID 0000.0001) %MON surfExpan_theta_mean         =  -3.4078766475432E-19
(PID.TID 0000.0001) %MON surfExpan_salt_mean          =  -5.1117644438313E-19
(PID.TID 0000.0001) // =======================================================
(PID.TID 0000.0001) // End MONITOR dynamic field statistics
(PID.TID 0000.0001) // =======================================================
 cg2d: Sum(rhs),rhsMax =  -2.78633429518291E-03  1.68847836569420E-01
 cg2d: Sum(rhs),rhsMax =  -2.78665539730368E-03  1.68852714165222E-01
 cg2d: Sum(rhs),rhsMax =  -2.78697483796204E-03  1.68857594941311E-01
 cg2d: Sum(rhs),rhsMax =  -2.78729261140404E-03  1.68862478895806E-01
 cg2d: Sum(rhs),rhsMax =  -2.78760871145520E-03  1.68867366026820E-01
 cg2d: Sum(rhs),rhsMax =  -2.78792313273326E-03  1.68872256332450E-01
 cg2d: Sum(rhs),rhsMax =  -2.78823586880517E-03  1.68877149810780E-01
 cg2d: Sum(rhs),rhsMax =  -2.78854691420439E-03  1.68882046459884E-01
 cg2d: Sum(rhs),rhsMax =  -2.78885626311093E-03  1.68886946277834E-01
 cg2d: Sum(rhs),rhsMax =  -2.78916391012193E-03  1.68891849262669E-01
 cg2d: Sum(rhs),rhsMax =  -2.78946984925425E-03  1.68896755412439E-01
 cg2d: Sum(rhs),rhsMax =  -2.78977407499047E-03  1.68901664725164E-01
 cg2d: Sum(rhs),rhsMax =  -2.79007658137149E-03  1.68906577198866E-01
 cg2d: Sum(rhs),rhsMax =  -2.79037736357720E-03  1.68911492831548E-01
 cg2d: Sum(rhs),rhsMax =  -2.79067641521218E-03  1.68916411621206E-01
 cg2d: Sum(rhs),rhsMax =  -2.79097373138589E-03  1.68921333565816E-01
 cg2d: Sum(rhs),rhsMax =  -2.79126930631201E-03  1.68926258663353E-01
 cg2d: Sum(rhs),rhsMax =  -2.79156313491334E-03  1.68931186911779E-01
 cg2d: Sum(rhs),rhsMax =  -2.79185521157752E-03  1.68936118309037E-01
 cg2d: Sum(rhs),rhsMax =  -2.79214553079110E-03  1.68941052853063E-01
 cg2d: Sum(rhs),rhsMax =  -2.79243408740743E-03  1.68945990541786E-01
 cg2d: Sum(rhs),rhsMax =  -2.79272087583562E-03  1.68950931373113E-01
 cg2d: Sum(rhs),rhsMax =  -2.79300589101374E-03  1.68955875344950E-01
 cg2d: Sum(rhs),rhsMax =  -2.79328912818817E-03  1.68960822455191E-01
 cg2d: Sum(rhs),rhsMax =  -2.79357058176908E-03  1.68965772701709E-01
 cg2d: Sum(rhs),rhsMax =  -2.79385024712011E-03  1.68970726082377E-01
 cg2d: Sum(rhs),rhsMax =  -2.79412811886294E-03  1.68975682595050E-01
 cg2d: Sum(rhs),rhsMax =  -2.79440419162489E-03  1.68980642237567E-01
 cg2d: Sum(rhs),rhsMax =  -2.79467846104907E-03  1.68985605007774E-01
 cg2d: Sum(rhs),rhsMax =  -2.79503528029225E-03  1.68990571423719E-01
 cg2d: Sum(rhs),rhsMax =  -2.79539011913998E-03  1.68995540431307E-01
 cg2d: Sum(rhs),rhsMax =  -2.79574295553218E-03  1.69000512577497E-01
 cg2d: Sum(rhs),rhsMax =  -2.79609375393085E-03  1.69005487839306E-01
 cg2d: Sum(rhs),rhsMax =  -2.79644249622398E-03  1.69010466212861E-01
 cg2d: Sum(rhs),rhsMax =  -2.79678917606757E-03  1.69015447698344E-01
 cg2d: Sum(rhs),rhsMax =  -2.79713379481735E-03  1.69020432296209E-01
 cg2d: Sum(rhs),rhsMax =  -2.79747635414931E-03  1.69025420005098E-01
 cg2d: Sum(rhs),rhsMax =  -2.79781685325753E-03  1.69030410822449E-01
 cg2d: Sum(rhs),rhsMax =  -2.79815528804865E-03  1.69035404745427E-01
 cg2d: Sum(rhs),rhsMax =  -2.79849165249240E-03  1.69040401771414E-01
 cg2d: Sum(rhs),rhsMax =  -2.79882594115090E-03  1.69045401898050E-01
 cg2d: Sum(rhs),rhsMax =  -2.79915814812798E-03  1.69050405123100E-01
 cg2d: Sum(rhs),rhsMax =  -2.79948826874543E-03  1.69055411444346E-01
 cg2d: Sum(rhs),rhsMax =  -2.79981629929229E-03  1.69060420859525E-01
 cg2d: Sum(rhs),rhsMax =  -2.80014223578412E-03  1.69065433366301E-01
 cg2d: Sum(rhs),rhsMax =  -2.80046607497381E-03  1.69070448962299E-01
 cg2d: Sum(rhs),rhsMax =  -2.80078781285064E-03  1.69075467645114E-01
 cg2d: Sum(rhs),rhsMax =  -2.80110744547187E-03  1.69080489412347E-01
 cg2d: Sum(rhs),rhsMax =  -2.80142496868327E-03  1.69085514261604E-01
 cg2d: Sum(rhs),rhsMax =  -2.80174037879315E-03  1.69090542190495E-01
 cg2d: Sum(rhs),rhsMax =  -2.80205367233790E-03  1.69095573196624E-01
 cg2d: Sum(rhs),rhsMax =  -2.80236484574882E-03  1.69100607277587E-01
 cg2d: Sum(rhs),rhsMax =  -2.80267389533847E-03  1.69105644430961E-01
 cg2d: Sum(rhs),rhsMax =  -2.80298081819284E-03  1.69110684654314E-01
 cg2d: Sum(rhs),rhsMax =  -2.80328561107359E-03  1.69115727945184E-01
 cg2d: Sum(rhs),rhsMax =  -2.80358827040892E-03  1.69120774301112E-01
 cg2d: Sum(rhs),rhsMax =  -2.80388879322522E-03  1.69125823719612E-01
 cg2d: Sum(rhs),rhsMax =  -2.80418717738346E-03  1.69130876198209E-01
 cg2d: Sum(rhs),rhsMax =  -2.80448341908924E-03  1.69135931734404E-01
 cg2d: Sum(rhs),rhsMax =  -2.80477751615556E-03  1.69140990325695E-01
 cg2d: Sum(rhs),rhsMax =  -2.80506946512560E-03  1.69146051969563E-01
 cg2d: Sum(rhs),rhsMax =  -2.80535926444128E-03  1.69151116663493E-01
 cg2d: Sum(rhs),rhsMax =  -2.80564691130934E-03  1.69156184404950E-01
 cg2d: Sum(rhs),rhsMax =  -2.80593240347593E-03  1.69161255191381E-01
 cg2d: Sum(rhs),rhsMax =  -2.80621573876683E-03  1.69166329020236E-01
 cg2d: Sum(rhs),rhsMax =  -2.80649691480381E-03  1.69171405888948E-01
 cg2d: Sum(rhs),rhsMax =  -2.80677593025185E-03  1.69176485794935E-01
 cg2d: Sum(rhs),rhsMax =  -2.80705278310947E-03  1.69181568735614E-01
 cg2d: Sum(rhs),rhsMax =  -2.80732747066256E-03  1.69186654708383E-01
 cg2d: Sum(rhs),rhsMax =  -2.80759999254601E-03  1.69191743710636E-01
 cg2d: Sum(rhs),rhsMax =  -2.80787034659389E-03  1.69196835739755E-01
 cg2d: Sum(rhs),rhsMax =  -2.80813853173676E-03  1.69201930793103E-01
(PID.TID 0000.0001)      cg2d_init_res =   9.45404854788340E-04
(PID.TID 0000.0001)      cg2d_iters(min,last) =      -1      75
(PID.TID 0000.0001)      cg2d_last_res =   9.57476177994152E-08
(PID.TID 0000.0001) // =======================================================
(PID.TID 0000.0001) // Begin MONITOR dynamic field statistics
(PID.TID 0000.0001) // =======================================================
(PID.TID 0000.0001) %MON time_tsnumber                =                  8712
(PID.TID 0000.0001) %MON time_secondsf                =   1.0454400000000E+07
(PID.TID 0000.0001) %MON dynstat_eta_max              =   2.0886448698519E-01
(PID.TID 0000.0001) %MON dynstat_eta_min              =  -7.7891766999377E-02
(PID.TID 0000.0001) %MON dynstat_eta_mean             =   2.3747914737734E-06
(PID.TID 0000.0001) %MON dynstat_eta_sd               =   8.5249996732768E-02
(PID.TID 0000.0001) %MON dynstat_eta_del2             =   2.5186250536734E-05
(PID.TID 0000.0001) %MON dynstat_uvel_max             =   1.2492018787310E-01
(PID.TID 0000.0001) %MON dynstat_uvel_min             =  -7.7007931052638E-02
(PID.TID 0000.0001) %MON dynstat_uvel_mean            =  -4.4138617086591E-08
(PID.TID 0000.0001) %MON dynstat_uvel_sd              =   3.5866920517801E-02
(PID.TID 0000.0001) %MON dynstat_uvel_del2            =   6.3343132211680E-05
(PID.TID 0000.0001) %MON dynstat_vvel_max             =   7.7542207251413E-02
(PID.TID 0000.0001) %MON dynstat_vvel_min             =  -8.9000934023833E-02
(PID.TID 0000.0001) %MON dynstat_vvel_mean            =   1.3137226454955E-07
(PID.TID 0000.0001) %MON dynstat_vvel_sd              =   3.1987224481759E-02
(PID.TID 0000.0001) %MON dynstat_vvel_del2            =   3.9935885353135E-05
(PID.TID 0000.0001) %MON dynstat_wvel_max             =   1.8222075907543E-08
(PID.TID 0000.0001) %MON dynstat_wvel_min             =  -8.1651157642773E-09
(PID.TID 0000.0001) %MON dynstat_wvel_mean            =  -4.0384328612062E-21
(PID.TID 0000.0001) %MON dynstat_wvel_sd              =   6.7178537837776E-09
(PID.TID 0000.0001) %MON dynstat_wvel_del2            =   2.9679857258816E-12
(PID.TID 0000.0001) %MON dynstat_theta_max            =   2.0000000000000E+01
(PID.TID 0000.0001) %MON dynstat_theta_min            =   2.0000000000000E+01
(PID.TID 0000.0001) %MON dynstat_theta_mean           =   2.0000000000000E+01
(PID.TID 0000.0001) %MON dynstat_theta_sd             =   3.8014036363165E-13
(PID.TID 0000.0001) %MON dynstat_theta_del2           =   0.0000000000000E+00
(PID.TID 0000.0001) %MON dynstat_salt_max             =   3.0000000000000E+01
(PID.TID 0000.0001) %MON dynstat_salt_min             =   3.0000000000000E+01
(PID.TID 0000.0001) %MON dynstat_salt_mean            =   2.9999999999999E+01
(PID.TID 0000.0001) %MON dynstat_salt_sd              =   5.5777604757167E-13
(PID.TID 0000.0001) %MON dynstat_salt_del2            =   0.0000000000000E+00
(PID.TID 0000.0001) %MON trAdv_CFL_u_max              =   7.4939905626642E-03
(PID.TID 0000.0001) %MON trAdv_CFL_v_max              =   5.3309569280402E-03
(PID.TID 0000.0001) %MON trAdv_CFL_w_max              =   4.7899935832629E-09
(PID.TID 0000.0001) %MON advcfl_uvel_max              =   7.4952112723861E-03
(PID.TID 0000.0001) %MON advcfl_vvel_max              =   5.3400560414300E-03
(PID.TID 0000.0001) %MON advcfl_wvel_max              =   8.7465964356204E-09
(PID.TID 0000.0001) %MON advcfl_W_hf_max              =   0.0000000000000E+00
(PID.TID 0000.0001) %MON pe_b_mean                    =   7.4509566363862E-06
(PID.TID 0000.0001) %MON ke_max                       =   7.8054949638222E-03
(PID.TID 0000.0001) %MON ke_mean                      =   1.1335739146744E-03
(PID.TID 0000.0001) %MON ke_vol                       =   6.8893493896486E+15
(PID.TID 0000.0001) %MON vort_r_min                   =  -1.1433569582595E-06
(PID.TID 0000.0001) %MON vort_r_max                   =   2.7371963598498E-06
(PID.TID 0000.0001) %MON vort_a_mean                  =   1.0600000000000E-04
(PID.TID 0000.0001) %MON vort_a_sd                    =   3.5501574610394E-06
(PID.TID 0000.0001) %MON vort_p_mean                  =   1.1652272308690E-04
(PID.TID 0000.0001) %MON vort_p_sd                    =   4.1783337496003E-05
(PID.TID 0000.0001) %MON surfExpan_theta_mean         =  -8.0793446007495E-20
(PID.TID 0000.0001) %MON surfExpan_salt_mean          =  -1.2118827423061E-19
(PID.TID 0000.0001) // =======================================================
(PID.TID 0000.0001) // End MONITOR dynamic field statistics
(PID.TID 0000.0001) // =======================================================
 cg2d: Sum(rhs),rhsMax =  -2.80840454704120E-03  1.69207028868048E-01
 cg2d: Sum(rhs),rhsMax =  -2.80866839068923E-03  1.69212129961939E-01
 cg2d: Sum(rhs),rhsMax =  -2.80893006225084E-03  1.69217234072117E-01
 cg2d: Sum(rhs),rhsMax =  -2.80918956078727E-03  1.69222341195907E-01
 cg2d: Sum(rhs),rhsMax =  -2.80944688551633E-03  1.69227451330635E-01
 cg2d: Sum(rhs),rhsMax =  -2.80970203620798E-03  1.69232564473611E-01
 cg2d: Sum(rhs),rhsMax =  -2.80995501221072E-03  1.69237680622127E-01
 cg2d: Sum(rhs),rhsMax =  -2.81020581284475E-03  1.69242799773474E-01
 cg2d: Sum(rhs),rhsMax =  -2.81045306170071E-03  1.69248004850271E-01
 cg2d: Sum(rhs),rhsMax =  -2.81068925030156E-03  1.69253747957471E-01
 cg2d: Sum(rhs),rhsMax =  -2.81092325527965E-03  1.69259494484720E-01
 cg2d: Sum(rhs),rhsMax =  -2.81115507779976E-03  1.69265244429297E-01
 cg2d: Sum(rhs),rhsMax =  -2.81138471811269E-03  1.69270997788461E-01
 cg2d: Sum(rhs),rhsMax =  -2.81161217646229E-03  1.69276754559449E-01
 cg2d: Sum(rhs),rhsMax =  -2.81183745425934E-03  1.69282514739497E-01
 cg2d: Sum(rhs),rhsMax =  -2.81206055212679E-03  1.69288278325827E-01
 cg2d: Sum(rhs),rhsMax =  -2.81228147114720E-03  1.69294045315641E-01
 cg2d: Sum(rhs),rhsMax =  -2.81250021220320E-03  1.69299815706148E-01
 cg2d: Sum(rhs),rhsMax =  -2.81271677762529E-03  1.69305589494524E-01
 cg2d: Sum(rhs),rhsMax =  -2.81293116814042E-03  1.69311366677944E-01
 cg2d: Sum(rhs),rhsMax =  -2.81314338585225E-03  1.69317147253569E-01
 cg2d: Sum(rhs),rhsMax =  -2.81335343276977E-03  1.69322931218545E-01
 cg2d: Sum(rhs),rhsMax =  -2.81356131100375E-03  1.69328718570015E-01
 cg2d: Sum(rhs),rhsMax =  -2.81376702272735E-03  1.69334509305099E-01
 cg2d: Sum(rhs),rhsMax =  -2.81397056996055E-03  1.69340303420910E-01
 cg2d: Sum(rhs),rhsMax =  -2.81417195581935E-03  1.69346100914557E-01
 cg2d: Sum(rhs),rhsMax =  -2.81437118313505E-03  1.69351901783115E-01
 cg2d: Sum(rhs),rhsMax =  -2.81456825466411E-03  1.69357706023676E-01
 cg2d: Sum(rhs),rhsMax =  -2.81476317393135E-03  1.69363513633297E-01
 cg2d: Sum(rhs),rhsMax =  -2.81495594335560E-03  1.69369324609035E-01
 cg2d: Sum(rhs),rhsMax =  -2.81514656720604E-03  1.69375138947935E-01
 cg2d: Sum(rhs),rhsMax =  -2.81533504931872E-03  1.69380956647023E-01
 cg2d: Sum(rhs),rhsMax =  -2.81552139304946E-03  1.69386777703322E-01
 cg2d: Sum(rhs),rhsMax =  -2.81570560288904E-03  1.69392602113837E-01
 cg2d: Sum(rhs),rhsMax =  -2.81588768303824E-03  1.69398429875562E-01
 cg2d: Sum(rhs),rhsMax =  -2.81606763777026E-03  1.69404260985486E-01
 cg2d: Sum(rhs),rhsMax =  -2.81624547207056E-03  1.69410095440578E-01
 cg2d: Sum(rhs),rhsMax =  -2.81642119031744E-03  1.69415933237802E-01
 cg2d: Sum(rhs),rhsMax =  -2.81659479844634E-03  1.69421774374099E-01
 cg2d: Sum(rhs),rhsMax =  -2.81676630095949E-03  1.69427618846417E-01
 cg2d: Sum(rhs),rhsMax =  -2.81693570361391E-03  1.69433466651676E-01
 cg2d: Sum(rhs),rhsMax =  -2.81710301207068E-03  1.69439317786794E-01
 cg2d: Sum(rhs),rhsMax =  -2.81726823218579E-03  1.69445172248674E-01
 cg2d: Sum(rhs),rhsMax =  -2.81743137029741E-03  1.69451030034206E-01
 cg2d: Sum(rhs),rhsMax =  -2.81759243242838E-03  1.69456891140270E-01
 cg2d: Sum(rhs),rhsMax =  -2.81775142545649E-03  1.69462755563736E-01
 cg2d: Sum(rhs),rhsMax =  -2.81790835545489E-03  1.69468623301463E-01
 cg2d: Sum(rhs),rhsMax =  -2.81806322984333E-03  1.69474494350300E-01
 cg2d: Sum(rhs),rhsMax =  -2.81821605595918E-03  1.69480368707075E-01
 cg2d: Sum(rhs),rhsMax =  -2.81836684104544E-03  1.69486246368618E-01
 cg2d: Sum(rhs),rhsMax =  -2.81851559229436E-03  1.69492127331735E-01
 cg2d: Sum(rhs),rhsMax =  -2.81866231834545E-03  1.69498011593231E-01
 cg2d: Sum(rhs),rhsMax =  -2.81880702701520E-03  1.69503899149894E-01
 cg2d: Sum(rhs),rhsMax =  -2.81894972621636E-03  1.69509789998509E-01
 cg2d: Sum(rhs),rhsMax =  -2.81909042454395E-03  1.69515684135837E-01
 cg2d: Sum(rhs),rhsMax =  -2.81922913109792E-03  1.69521581558636E-01
 cg2d: Sum(rhs),rhsMax =  -2.81936585452111E-03  1.69527482263654E-01
 cg2d: Sum(rhs),rhsMax =  -2.81950060451783E-03  1.69533386247619E-01
 cg2d: Sum(rhs),rhsMax =  -2.81963338985675E-03  1.69539293507261E-01
 cg2d: Sum(rhs),rhsMax =  -2.81976422073361E-03  1.69545204039283E-01
 cg2d: Sum(rhs),rhsMax =  -2.81989310704910E-03  1.69551117840394E-01
 cg2d: Sum(rhs),rhsMax =  -2.82002005841544E-03  1.69557034907286E-01
 cg2d: Sum(rhs),rhsMax =  -2.82014508626510E-03  1.69562955236628E-01
 cg2d: Sum(rhs),rhsMax =  -2.82026819997435E-03  1.69568878825096E-01
 cg2d: Sum(rhs),rhsMax =  -2.82038941116055E-03  1.69574805669344E-01
 cg2d: Sum(rhs),rhsMax =  -2.82050873115593E-03  1.69580735766013E-01
 cg2d: Sum(rhs),rhsMax =  -2.82062617077834E-03  1.69586669111748E-01
 cg2d: Sum(rhs),rhsMax =  -2.82074174159082E-03  1.69592605703170E-01
 cg2d: Sum(rhs),rhsMax =  -2.82085545623598E-03  1.69598545536889E-01
 cg2d: Sum(rhs),rhsMax =  -2.82096732580410E-03  1.69604488609507E-01
 cg2d: Sum(rhs),rhsMax =  -2.82107736314875E-03  1.69610434917619E-01
 cg2d: Sum(rhs),rhsMax =  -2.82118558078908E-03  1.69616384457803E-01
(PID.TID 0000.0001)      cg2d_init_res =   9.35708520875588E-04
(PID.TID 0000.0001)      cg2d_iters(min,last) =      -1      75
(PID.TID 0000.0001)      cg2d_last_res =   8.86993043965625E-08
(PID.TID 0000.0001) // =======================================================
(PID.TID 0000.0001) // Begin MONITOR dynamic field statistics
(PID.TID 0000.0001) // =======================================================
(PID.TID 0000.0001) %MON time_tsnumber                =                  8784
(PID.TID 0000.0001) %MON time_secondsf                =   1.0540800000000E+07
(PID.TID 0000.0001) %MON dynstat_eta_max              =   2.1034020019500E-01
(PID.TID 0000.0001) %MON dynstat_eta_min              =  -7.8344164336274E-02
(PID.TID 0000.0001) %MON dynstat_eta_mean             =   2.3915446467991E-06
(PID.TID 0000.0001) %MON dynstat_eta_sd               =   8.5802416858956E-02
(PID.TID 0000.0001) %MON dynstat_eta_del2             =   2.5246661028270E-05
(PID.TID 0000.0001) %MON dynstat_uvel_max             =   1.2520748793173E-01
(PID.TID 0000.0001) %MON dynstat_uvel_min             =  -7.7498729863289E-02
(PID.TID 0000.0001) %MON dynstat_uvel_mean            =  -4.6443563952377E-08
(PID.TID 0000.0001) %MON dynstat_uvel_sd              =   3.6066193458217E-02
(PID.TID 0000.0001) %MON dynstat_uvel_del2            =   6.3425468285612E-05
(PID.TID 0000.0001) %MON dynstat_vvel_max             =   7.7950677224424E-02
(PID.TID 0000.0001) %MON dynstat_vvel_min             =  -8.9742109652672E-02
(PID.TID 0000.0001) %MON dynstat_vvel_mean            =   1.3312412835400E-07
(PID.TID 0000.0001) %MON dynstat_vvel_sd              =   3.2182814961050E-02
(PID.TID 0000.0001) %MON dynstat_vvel_del2            =   3.9925522057811E-05
(PID.TID 0000.0001) %MON dynstat_wvel_max             =   1.8222803732497E-08
(PID.TID 0000.0001) %MON dynstat_wvel_min             =  -8.3126678006374E-09
(PID.TID 0000.0001) %MON dynstat_wvel_mean            =  -4.5486477675796E-21
(PID.TID 0000.0001) %MON dynstat_wvel_sd              =   6.6882611175360E-09
(PID.TID 0000.0001) %MON dynstat_wvel_del2            =   2.9378945738953E-12
(PID.TID 0000.0001) %MON dynstat_theta_max            =   2.0000000000000E+01
(PID.TID 0000.0001) %MON dynstat_theta_min            =   2.0000000000000E+01
(PID.TID 0000.0001) %MON dynstat_theta_mean           =   2.0000000000000E+01
(PID.TID 0000.0001) %MON dynstat_theta_sd             =   3.8014036363165E-13
(PID.TID 0000.0001) %MON dynstat_theta_del2           =   0.0000000000000E+00
(PID.TID 0000.0001) %MON dynstat_salt_max             =   3.0000000000000E+01
(PID.TID 0000.0001) %MON dynstat_salt_min             =   3.0000000000000E+01
(PID.TID 0000.0001) %MON dynstat_salt_mean            =   2.9999999999999E+01
(PID.TID 0000.0001) %MON dynstat_salt_sd              =   5.5777604757167E-13
(PID.TID 0000.0001) %MON dynstat_salt_del2            =   0.0000000000000E+00
(PID.TID 0000.0001) %MON trAdv_CFL_u_max              =   7.5112186423698E-03
(PID.TID 0000.0001) %MON trAdv_CFL_v_max              =   5.3751860773993E-03
(PID.TID 0000.0001) %MON trAdv_CFL_w_max              =   4.7865421362957E-09
(PID.TID 0000.0001) %MON advcfl_uvel_max              =   7.5124492759038E-03
(PID.TID 0000.0001) %MON advcfl_vvel_max              =   5.3845265791603E-03
(PID.TID 0000.0001) %MON advcfl_wvel_max              =   8.7469457915984E-09
(PID.TID 0000.0001) %MON advcfl_W_hf_max              =   0.0000000000000E+00
(PID.TID 0000.0001) %MON pe_b_mean                    =   7.5478339289759E-06
(PID.TID 0000.0001) %MON ke_max                       =   7.8417534163228E-03
(PID.TID 0000.0001) %MON ke_mean                      =   1.1467694082370E-03
(PID.TID 0000.0001) %MON ke_vol                       =   6.8893493896486E+15
(PID.TID 0000.0001) %MON vort_r_min                   =  -1.1362965395698E-06
(PID.TID 0000.0001) %MON vort_r_max                   =   2.7430730926975E-06
(PID.TID 0000.0001) %MON vort_a_mean                  =   1.0600000000000E-04
(PID.TID 0000.0001) %MON vort_a_sd                    =   3.5503104254843E-06
(PID.TID 0000.0001) %MON vort_p_mean                  =   1.1652272308690E-04
(PID.TID 0000.0001) %MON vort_p_sd                    =   4.1783547575352E-05
(PID.TID 0000.0001) %MON surfExpan_theta_mean         =  -9.0979786667352E-20
(PID.TID 0000.0001) %MON surfExpan_salt_mean          =  -1.3647410115583E-19
(PID.TID 0000.0001) // =======================================================
(PID.TID 0000.0001) // End MONITOR dynamic field statistics
(PID.TID 0000.0001) // =======================================================
 cg2d: Sum(rhs),rhsMax =  -2.82129199175029E-03  1.69622337226633E-01
 cg2d: Sum(rhs),rhsMax =  -2.82139660891862E-03  1.69628293220670E-01
 cg2d: Sum(rhs),rhsMax =  -2.82149944584201E-03  1.69634252436453E-01
 cg2d: Sum(rhs),rhsMax =  -2.82160051602132E-03  1.69640214870528E-01
 cg2d: Sum(rhs),rhsMax =  -2.82169983289005E-03  1.69646180519423E-01
 cg2d: Sum(rhs),rhsMax =  -2.82179741115070E-03  1.69652149379650E-01
 cg2d: Sum(rhs),rhsMax =  -2.82189326462928E-03  1.69658121447718E-01
 cg2d: Sum(rhs),rhsMax =  -2.82198740814953E-03  1.69664096720122E-01
 cg2d: Sum(rhs),rhsMax =  -2.82207985711845E-03  1.69670075193345E-01
 cg2d: Sum(rhs),rhsMax =  -2.82217062565937E-03  1.69676056863862E-01
 cg2d: Sum(rhs),rhsMax =  -2.82225972980386E-03  1.69682041728139E-01
 cg2d: Sum(rhs),rhsMax =  -2.82234718496160E-03  1.69688029782629E-01
 cg2d: Sum(rhs),rhsMax =  -2.82243300701780E-03  1.69694021023771E-01
 cg2d: Sum(rhs),rhsMax =  -2.82251721196975E-03  1.69700015448004E-01
 cg2d: Sum(rhs),rhsMax =  -2.82259981635051E-03  1.69706013051746E-01
 cg2d: Sum(rhs),rhsMax =  -2.82268083662974E-03  1.69712013831407E-01
 cg2d: Sum(rhs),rhsMax =  -2.82276029015472E-03  1.69718017783389E-01
 cg2d: Sum(rhs),rhsMax =  -2.82283819349725E-03  1.69724024904089E-01
 cg2d: Sum(rhs),rhsMax =  -2.82291456466996E-03  1.69730035189874E-01
 cg2d: Sum(rhs),rhsMax =  -2.82298942091412E-03  1.69736048637128E-01
 cg2d: Sum(rhs),rhsMax =  -2.82306278005547E-03  1.69742065242204E-01
 cg2d: Sum(rhs),rhsMax =  -2.82313466050879E-03  1.69748085001453E-01
 cg2d: Sum(rhs),rhsMax =  -2.82320508060464E-03  1.69754107911215E-01
 cg2d: Sum(rhs),rhsMax =  -2.82327405889595E-03  1.69760133967818E-01
 cg2d: Sum(rhs),rhsMax =  -2.82334161414895E-03  1.69766163167579E-01
 cg2d: Sum(rhs),rhsMax =  -2.82340776610156E-03  1.69772195506809E-01
 cg2d: Sum(rhs),rhsMax =  -2.82347253375208E-03  1.69778230981814E-01
 cg2d: Sum(rhs),rhsMax =  -2.82353593673752E-03  1.69784269588872E-01
 cg2d: Sum(rhs),rhsMax =  -2.82359799486134E-03  1.69790311324266E-01
 cg2d: Sum(rhs),rhsMax =  -2.82365872896241E-03  1.69796356184261E-01
 cg2d: Sum(rhs),rhsMax =  -2.82371815890320E-03  1.69802404165119E-01
 cg2d: Sum(rhs),rhsMax =  -2.82377630503649E-03  1.69808455263086E-01
 cg2d: Sum(rhs),rhsMax =  -2.82383318906131E-03  1.69814509474404E-01
 cg2d: Sum(rhs),rhsMax =  -2.82388883145365E-03  1.69820566795302E-01
 cg2d: Sum(rhs),rhsMax =  -2.82394325398514E-03  1.69826627221991E-01
 cg2d: Sum(rhs),rhsMax =  -2.82399647806643E-03  1.69832690750685E-01
 cg2d: Sum(rhs),rhsMax =  -2.82404852552345E-03  1.69838757377583E-01
 cg2d: Sum(rhs),rhsMax =  -2.82409941855659E-03  1.69844827098875E-01
 cg2d: Sum(rhs),rhsMax =  -2.82414917923602E-03  1.69850899910734E-01
 cg2d: Sum(rhs),rhsMax =  -2.82419783018781E-03  1.69856975809336E-01
 cg2d: Sum(rhs),rhsMax =  -2.82424539428269E-03  1.69863054790837E-01
 cg2d: Sum(rhs),rhsMax =  -2.82429189483015E-03  1.69869136851387E-01
 cg2d: Sum(rhs),rhsMax =  -2.82433735451783E-03  1.69875221987123E-01
 cg2d: Sum(rhs),rhsMax =  -2.82438179744470E-03  1.69881310194182E-01
 cg2d: Sum(rhs),rhsMax =  -2.82442524657280E-03  1.69887401468680E-01
 cg2d: Sum(rhs),rhsMax =  -2.82446772615059E-03  1.69893495806728E-01
 cg2d: Sum(rhs),rhsMax =  -2.82450926054764E-03  1.69899593204424E-01
 cg2d: Sum(rhs),rhsMax =  -2.82454987398747E-03  1.69905693657866E-01
 cg2d: Sum(rhs),rhsMax =  -2.82458959059549E-03  1.69911797163133E-01
 cg2d: Sum(rhs),rhsMax =  -2.82462843554275E-03  1.69917903716298E-01
 cg2d: Sum(rhs),rhsMax =  -2.82466643397009E-03  1.69924013313420E-01
 cg2d: Sum(rhs),rhsMax =  -2.82470361040852E-03  1.69930125950560E-01
 cg2d: Sum(rhs),rhsMax =  -2.82473999036287E-03  1.69936241623751E-01
 cg2d: Sum(rhs),rhsMax =  -2.82477559990389E-03  1.69942360329043E-01
 cg2d: Sum(rhs),rhsMax =  -2.82481046443192E-03  1.69948482062443E-01
 cg2d: Sum(rhs),rhsMax =  -2.82484460991903E-03  1.69954606819981E-01
 cg2d: Sum(rhs),rhsMax =  -2.82487806261255E-03  1.69960734597654E-01
 cg2d: Sum(rhs),rhsMax =  -2.82491084862744E-03  1.69966865391464E-01
 cg2d: Sum(rhs),rhsMax =  -2.82494299496685E-03  1.69972999197393E-01
 cg2d: Sum(rhs),rhsMax =  -2.82497452752369E-03  1.69979136011425E-01
 cg2d: Sum(rhs),rhsMax =  -2.82500547375637E-03  1.69985275829528E-01
 cg2d: Sum(rhs),rhsMax =  -2.82503586061876E-03  1.69991418647655E-01
 cg2d: Sum(rhs),rhsMax =  -2.82506571528856E-03  1.69997564461766E-01
 cg2d: Sum(rhs),rhsMax =  -2.82509506486320E-03  1.70003713267795E-01
 cg2d: Sum(rhs),rhsMax =  -2.82512393731495E-03  1.70009865061676E-01
 cg2d: Sum(rhs),rhsMax =  -2.82515235984025E-03  1.70016019839335E-01
 cg2d: Sum(rhs),rhsMax =  -2.82518036050852E-03  1.70022177596677E-01
 cg2d: Sum(rhs),rhsMax =  -2.82520796773577E-03  1.70028338329617E-01
 cg2d: Sum(rhs),rhsMax =  -2.82523520899823E-03  1.70034502034045E-01
 cg2d: Sum(rhs),rhsMax =  -2.82526211242149E-03  1.70040668705846E-01
 cg2d: Sum(rhs),rhsMax =  -2.82528870714484E-03  1.70046838340899E-01
 cg2d: Sum(rhs),rhsMax =  -2.82531502142822E-03  1.70053010935075E-01
(PID.TID 0000.0001)      cg2d_init_res =   9.26178724301793E-04
(PID.TID 0000.0001)      cg2d_iters(min,last) =      -1      75
(PID.TID 0000.0001)      cg2d_last_res =   8.46698291938208E-08
(PID.TID 0000.0001) // =======================================================
(PID.TID 0000.0001) // Begin MONITOR dynamic field statistics
(PID.TID 0000.0001) // =======================================================
(PID.TID 0000.0001) %MON time_tsnumber                =                  8856
(PID.TID 0000.0001) %MON time_secondsf                =   1.0627200000000E+07
(PID.TID 0000.0001) %MON dynstat_eta_max              =   2.1180984350030E-01
(PID.TID 0000.0001) %MON dynstat_eta_min              =  -7.8792561441236E-02
(PID.TID 0000.0001) %MON dynstat_eta_mean             =   2.4011450479909E-06
(PID.TID 0000.0001) %MON dynstat_eta_sd               =   8.6353367371036E-02
(PID.TID 0000.0001) %MON dynstat_eta_del2             =   2.5307677749221E-05
(PID.TID 0000.0001) %MON dynstat_uvel_max             =   1.2550508101193E-01
(PID.TID 0000.0001) %MON dynstat_uvel_min             =  -7.8013168552310E-02
(PID.TID 0000.0001) %MON dynstat_uvel_mean            =  -4.7825371785866E-08
(PID.TID 0000.0001) %MON dynstat_uvel_sd              =   3.6266988425496E-02
(PID.TID 0000.0001) %MON dynstat_uvel_del2            =   6.3503056814169E-05
(PID.TID 0000.0001) %MON dynstat_vvel_max             =   7.8377603943461E-02
(PID.TID 0000.0001) %MON dynstat_vvel_min             =  -9.0482359618226E-02
(PID.TID 0000.0001) %MON dynstat_vvel_mean            =   1.3443512949174E-07
(PID.TID 0000.0001) %MON dynstat_vvel_sd              =   3.2377174444544E-02
(PID.TID 0000.0001) %MON dynstat_vvel_del2            =   3.9926145396250E-05
(PID.TID 0000.0001) %MON dynstat_wvel_max             =   1.8225540295098E-08
(PID.TID 0000.0001) %MON dynstat_wvel_min             =  -8.4258528586361E-09
(PID.TID 0000.0001) %MON dynstat_wvel_mean            =  -1.4397632084082E-21
(PID.TID 0000.0001) %MON dynstat_wvel_sd              =   6.6562673044647E-09
(PID.TID 0000.0001) %MON dynstat_wvel_del2            =   2.9071382703384E-12
(PID.TID 0000.0001) %MON dynstat_theta_max            =   2.0000000000000E+01
(PID.TID 0000.0001) %MON dynstat_theta_min            =   2.0000000000000E+01
(PID.TID 0000.0001) %MON dynstat_theta_mean           =   2.0000000000000E+01
(PID.TID 0000.0001) %MON dynstat_theta_sd             =   3.8014036363165E-13
(PID.TID 0000.0001) %MON dynstat_theta_del2           =   0.0000000000000E+00
(PID.TID 0000.0001) %MON dynstat_salt_max             =   3.0000000000000E+01
(PID.TID 0000.0001) %MON dynstat_salt_min             =   3.0000000000000E+01
(PID.TID 0000.0001) %MON dynstat_salt_mean            =   2.9999999999999E+01
(PID.TID 0000.0001) %MON dynstat_salt_sd              =   5.5777604757167E-13
(PID.TID 0000.0001) %MON dynstat_salt_del2            =   0.0000000000000E+00
(PID.TID 0000.0001) %MON trAdv_CFL_u_max              =   7.5290624592599E-03
(PID.TID 0000.0001) %MON trAdv_CFL_v_max              =   5.4195304881789E-03
(PID.TID 0000.0001) %MON trAdv_CFL_w_max              =   4.7812299412148E-09
(PID.TID 0000.0001) %MON advcfl_uvel_max              =   7.5303048607155E-03
(PID.TID 0000.0001) %MON advcfl_vvel_max              =   5.4289415770936E-03
(PID.TID 0000.0001) %MON advcfl_wvel_max              =   8.7482593416469E-09
(PID.TID 0000.0001) %MON advcfl_W_hf_max              =   0.0000000000000E+00
(PID.TID 0000.0001) %MON pe_b_mean                    =   7.6450767398210E-06
(PID.TID 0000.0001) %MON ke_max                       =   7.8792558710483E-03
(PID.TID 0000.0001) %MON ke_mean                      =   1.1600564926099E-03
(PID.TID 0000.0001) %MON ke_vol                       =   6.8893493896486E+15
(PID.TID 0000.0001) %MON vort_r_min                   =  -1.1286362716795E-06
(PID.TID 0000.0001) %MON vort_r_max                   =   2.7492012576746E-06
(PID.TID 0000.0001) %MON vort_a_mean                  =   1.0600000000000E-04
(PID.TID 0000.0001) %MON vort_a_sd                    =   3.5504677059548E-06
(PID.TID 0000.0001) %MON vort_p_mean                  =   1.1652272308690E-04
(PID.TID 0000.0001) %MON vort_p_sd                    =   4.1783753353043E-05
(PID.TID 0000.0001) %MON surfExpan_theta_mean         =  -2.8776665001513E-20
(PID.TID 0000.0001) %MON surfExpan_salt_mean          =  -4.3166576486126E-20
(PID.TID 0000.0001) // =======================================================
(PID.TID 0000.0001) // End MONITOR dynamic field statistics
(PID.TID 0000.0001) // =======================================================
 cg2d: Sum(rhs),rhsMax =  -2.82534108358738E-03  1.70059186484230E-01
 cg2d: Sum(rhs),rhsMax =  -2.82536692287378E-03  1.70065364984214E-01
 cg2d: Sum(rhs),rhsMax =  -2.82539256803921E-03  1.70071546430870E-01
 cg2d: Sum(rhs),rhsMax =  -2.82541804789568E-03  1.70077730820031E-01
 cg2d: Sum(rhs),rhsMax =  -2.82544339173975E-03  1.70083918147516E-01
 cg2d: Sum(rhs),rhsMax =  -2.82546862895354E-03  1.70090108409147E-01
 cg2d: Sum(rhs),rhsMax =  -2.82549378816067E-03  1.70096301600727E-01
 cg2d: Sum(rhs),rhsMax =  -2.82551889984167E-03  1.70102497718052E-01
 cg2d: Sum(rhs),rhsMax =  -2.82554399285891E-03  1.70108696756910E-01
 cg2d: Sum(rhs),rhsMax =  -2.82556909719708E-03  1.70114898713084E-01
 cg2d: Sum(rhs),rhsMax =  -2.82559424234767E-03  1.70121103582341E-01
 cg2d: Sum(rhs),rhsMax =  -2.82561945776458E-03  1.70127311360444E-01
 cg2d: Sum(rhs),rhsMax =  -2.82564477348593E-03  1.70133522043146E-01
 cg2d: Sum(rhs),rhsMax =  -2.82567021946298E-03  1.70139735626197E-01
 cg2d: Sum(rhs),rhsMax =  -2.82569582565900E-03  1.70145952105328E-01
 cg2d: Sum(rhs),rhsMax =  -2.82572162230892E-03  1.70152171476268E-01
 cg2d: Sum(rhs),rhsMax =  -2.82574763897001E-03  1.70158393734733E-01
 cg2d: Sum(rhs),rhsMax =  -2.82577390610327E-03  1.70164618876441E-01
 cg2d: Sum(rhs),rhsMax =  -2.82580045379411E-03  1.70170846897088E-01
 cg2d: Sum(rhs),rhsMax =  -2.82582731229796E-03  1.70177077792372E-01
 cg2d: Sum(rhs),rhsMax =  -2.82585451140412E-03  1.70183311557971E-01
 cg2d: Sum(rhs),rhsMax =  -2.82588208182634E-03  1.70189548189567E-01
 cg2d: Sum(rhs),rhsMax =  -2.82591005372367E-03  1.70195787682825E-01
 cg2d: Sum(rhs),rhsMax =  -2.82593845707575E-03  1.70202030033413E-01
 cg2d: Sum(rhs),rhsMax =  -2.82596732280031E-03  1.70208275236973E-01
 cg2d: Sum(rhs),rhsMax =  -2.82599668025793E-03  1.70214523289147E-01
 cg2d: Sum(rhs),rhsMax =  -2.82602656053729E-03  1.70220774185584E-01
 cg2d: Sum(rhs),rhsMax =  -2.82605699363176E-03  1.70227027921888E-01
 cg2d: Sum(rhs),rhsMax =  -2.82608800967437E-03  1.70233284493699E-01
 cg2d: Sum(rhs),rhsMax =  -2.82611963941772E-03  1.70239543896611E-01
 cg2d: Sum(rhs),rhsMax =  -2.82615191214445E-03  1.70245806126240E-01
 cg2d: Sum(rhs),rhsMax =  -2.82618485896540E-03  1.70252071178167E-01
 cg2d: Sum(rhs),rhsMax =  -2.82621850942640E-03  1.70258339047983E-01
 cg2d: Sum(rhs),rhsMax =  -2.82625289359890E-03  1.70264609731267E-01
 cg2d: Sum(rhs),rhsMax =  -2.82628804202981E-03  1.70270883223586E-01
 cg2d: Sum(rhs),rhsMax =  -2.82632398420614E-03  1.70277159520501E-01
 cg2d: Sum(rhs),rhsMax =  -2.82636075030900E-03  1.70283438617563E-01
 cg2d: Sum(rhs),rhsMax =  -2.82639837039142E-03  1.70289720510322E-01
 cg2d: Sum(rhs),rhsMax =  -2.82643687430209E-03  1.70296005194310E-01
 cg2d: Sum(rhs),rhsMax =  -2.82647629137944E-03  1.70302292665058E-01
 cg2d: Sum(rhs),rhsMax =  -2.82651665175930E-03  1.70308582918091E-01
 cg2d: Sum(rhs),rhsMax =  -2.82655798481920E-03  1.70314875948918E-01
 cg2d: Sum(rhs),rhsMax =  -2.82660032020834E-03  1.70321171753044E-01
 cg2d: Sum(rhs),rhsMax =  -2.82664368703235E-03  1.70327470325966E-01
 cg2d: Sum(rhs),rhsMax =  -2.82668811471153E-03  1.70333771663174E-01
 cg2d: Sum(rhs),rhsMax =  -2.82673363238838E-03  1.70340075760157E-01
 cg2d: Sum(rhs),rhsMax =  -2.82678026977597E-03  1.70346382612380E-01
 cg2d: Sum(rhs),rhsMax =  -2.82682805524821E-03  1.70352692215311E-01
 cg2d: Sum(rhs),rhsMax =  -2.82687701732138E-03  1.70359004564407E-01
 cg2d: Sum(rhs),rhsMax =  -2.82692718569488E-03  1.70365319655125E-01
 cg2d: Sum(rhs),rhsMax =  -2.82697858835389E-03  1.70371637482902E-01
 cg2d: Sum(rhs),rhsMax =  -2.82703125414081E-03  1.70377958043176E-01
 cg2d: Sum(rhs),rhsMax =  -2.82708521118670E-03  1.70384281331376E-01
 cg2d: Sum(rhs),rhsMax =  -2.82714048767107E-03  1.70390607342920E-01
 cg2d: Sum(rhs),rhsMax =  -2.82719711133841E-03  1.70396936073221E-01
 cg2d: Sum(rhs),rhsMax =  -2.82725511046960E-03  1.70403267517684E-01
 cg2d: Sum(rhs),rhsMax =  -2.82731451316781E-03  1.70409601671708E-01
 cg2d: Sum(rhs),rhsMax =  -2.82737534616868E-03  1.70415938530682E-01
 cg2d: Sum(rhs),rhsMax =  -2.82743763747657E-03  1.70422278089987E-01
 cg2d: Sum(rhs),rhsMax =  -2.82750141394448E-03  1.70428620344998E-01
 cg2d: Sum(rhs),rhsMax =  -2.82756670293077E-03  1.70434965291087E-01
 cg2d: Sum(rhs),rhsMax =  -2.82763353134136E-03  1.70441312923610E-01
 cg2d: Sum(rhs),rhsMax =  -2.82770192561880E-03  1.70447663237923E-01
 cg2d: Sum(rhs),rhsMax =  -2.82777191209257E-03  1.70454016229367E-01
 cg2d: Sum(rhs),rhsMax =  -2.82784351763030E-03  1.70460371893284E-01
 cg2d: Sum(rhs),rhsMax =  -2.82791676759297E-03  1.70466730225003E-01
 cg2d: Sum(rhs),rhsMax =  -2.82799168915415E-03  1.70473091219851E-01
 cg2d: Sum(rhs),rhsMax =  -2.82806830699869E-03  1.70479454873140E-01
 cg2d: Sum(rhs),rhsMax =  -2.82814664678116E-03  1.70485821180181E-01
 cg2d: Sum(rhs),rhsMax =  -2.82822673380922E-03  1.70492190136276E-01
 cg2d: Sum(rhs),rhsMax =  -2.82830859358680E-03  1.70498561736723E-01
 cg2d: Sum(rhs),rhsMax =  -2.82839225023668E-03  1.70504935976805E-01
(PID.TID 0000.0001)      cg2d_init_res =   9.16763828234169E-04
(PID.TID 0000.0001)      cg2d_iters(min,last) =      -1      75
(PID.TID 0000.0001)      cg2d_last_res =   8.67592576637205E-08
(PID.TID 0000.0001) // =======================================================
(PID.TID 0000.0001) // Begin MONITOR dynamic field statistics
(PID.TID 0000.0001) // =======================================================
(PID.TID 0000.0001) %MON time_tsnumber                =                  8928
(PID.TID 0000.0001) %MON time_secondsf                =   1.0713600000000E+07
(PID.TID 0000.0001) %MON dynstat_eta_max              =   2.1327301189832E-01
(PID.TID 0000.0001) %MON dynstat_eta_min              =  -7.9236879073762E-02
(PID.TID 0000.0001) %MON dynstat_eta_mean             =   2.4102016285864E-06
(PID.TID 0000.0001) %MON dynstat_eta_sd               =   8.6902475240324E-02
(PID.TID 0000.0001) %MON dynstat_eta_del2             =   2.5369585634142E-05
(PID.TID 0000.0001) %MON dynstat_uvel_max             =   1.2581490187685E-01
(PID.TID 0000.0001) %MON dynstat_uvel_min             =  -7.8550177521960E-02
(PID.TID 0000.0001) %MON dynstat_uvel_mean            =  -4.8426579772198E-08
(PID.TID 0000.0001) %MON dynstat_uvel_sd              =   3.6469044427912E-02
(PID.TID 0000.0001) %MON dynstat_uvel_del2            =   6.3576733915437E-05
(PID.TID 0000.0001) %MON dynstat_vvel_max             =   7.8774151627793E-02
(PID.TID 0000.0001) %MON dynstat_vvel_min             =  -9.1220179065187E-02
(PID.TID 0000.0001) %MON dynstat_vvel_mean            =   1.3523777937781E-07
(PID.TID 0000.0001) %MON dynstat_vvel_sd              =   3.2570487530379E-02
(PID.TID 0000.0001) %MON dynstat_vvel_del2            =   3.9936954590626E-05
(PID.TID 0000.0001) %MON dynstat_wvel_max             =   1.8222040400578E-08
(PID.TID 0000.0001) %MON dynstat_wvel_min             =  -8.5239564767107E-09
(PID.TID 0000.0001) %MON dynstat_wvel_mean            =   1.6951523523150E-21
(PID.TID 0000.0001) %MON dynstat_wvel_sd              =   6.6223416535810E-09
(PID.TID 0000.0001) %MON dynstat_wvel_del2            =   2.8759990277537E-12
(PID.TID 0000.0001) %MON dynstat_theta_max            =   2.0000000000000E+01
(PID.TID 0000.0001) %MON dynstat_theta_min            =   2.0000000000000E+01
(PID.TID 0000.0001) %MON dynstat_theta_mean           =   2.0000000000000E+01
(PID.TID 0000.0001) %MON dynstat_theta_sd             =   3.8014036363165E-13
(PID.TID 0000.0001) %MON dynstat_theta_del2           =   0.0000000000000E+00
(PID.TID 0000.0001) %MON dynstat_salt_max             =   3.0000000000000E+01
(PID.TID 0000.0001) %MON dynstat_salt_min             =   3.0000000000000E+01
(PID.TID 0000.0001) %MON dynstat_salt_mean            =   2.9999999999999E+01
(PID.TID 0000.0001) %MON dynstat_salt_sd              =   5.5777604757167E-13
(PID.TID 0000.0001) %MON dynstat_salt_del2            =   0.0000000000000E+00
(PID.TID 0000.0001) %MON trAdv_CFL_u_max              =   7.5476383838657E-03
(PID.TID 0000.0001) %MON trAdv_CFL_v_max              =   5.4639424814499E-03
(PID.TID 0000.0001) %MON trAdv_CFL_w_max              =   4.7765956949867E-09
(PID.TID 0000.0001) %MON advcfl_uvel_max              =   7.5488941126110E-03
(PID.TID 0000.0001) %MON advcfl_vvel_max              =   5.4732107439112E-03
(PID.TID 0000.0001) %MON advcfl_wvel_max              =   8.7465793922776E-09
(PID.TID 0000.0001) %MON advcfl_W_hf_max              =   0.0000000000000E+00
(PID.TID 0000.0001) %MON pe_b_mean                    =   7.7426136178064E-06
(PID.TID 0000.0001) %MON ke_max                       =   7.9182760237051E-03
(PID.TID 0000.0001) %MON ke_mean                      =   1.1734319219578E-03
(PID.TID 0000.0001) %MON ke_vol                       =   6.8893493896486E+15
(PID.TID 0000.0001) %MON vort_r_min                   =  -1.1214827400737E-06
(PID.TID 0000.0001) %MON vort_r_max                   =   2.7556014372899E-06
(PID.TID 0000.0001) %MON vort_a_mean                  =   1.0600000000000E-04
(PID.TID 0000.0001) %MON vort_a_sd                    =   3.5506296608836E-06
(PID.TID 0000.0001) %MON vort_p_mean                  =   1.1652272308690E-04
(PID.TID 0000.0001) %MON vort_p_sd                    =   4.1783954466442E-05
(PID.TID 0000.0001) %MON surfExpan_theta_mean         =   3.3945626556589E-20
(PID.TID 0000.0001) %MON surfExpan_salt_mean          =   5.0917808241340E-20
(PID.TID 0000.0001) // =======================================================
(PID.TID 0000.0001) // End MONITOR dynamic field statistics
(PID.TID 0000.0001) // =======================================================
 cg2d: Sum(rhs),rhsMax =  -2.82847772896129E-03  1.70511312851805E-01
 cg2d: Sum(rhs),rhsMax =  -2.82856505404321E-03  1.70517692356997E-01
 cg2d: Sum(rhs),rhsMax =  -2.82865424917872E-03  1.70524074487643E-01
 cg2d: Sum(rhs),rhsMax =  -2.82874533902713E-03  1.70530459239010E-01
 cg2d: Sum(rhs),rhsMax =  -2.82883834669770E-03  1.70536846606342E-01
 cg2d: Sum(rhs),rhsMax =  -2.82893329574544E-03  1.70543236584891E-01
 cg2d: Sum(rhs),rhsMax =  -2.82903020968149E-03  1.70549629169896E-01
 cg2d: Sum(rhs),rhsMax =  -2.82912911141781E-03  1.70556024356588E-01
 cg2d: Sum(rhs),rhsMax =  -2.82923002347863E-03  1.70562422140183E-01
 cg2d: Sum(rhs),rhsMax =  -2.82933296815326E-03  1.70568822515910E-01
 cg2d: Sum(rhs),rhsMax =  -2.82943796800767E-03  1.70575225478972E-01
 cg2d: Sum(rhs),rhsMax =  -2.82954504488413E-03  1.70581631024580E-01
 cg2d: Sum(rhs),rhsMax =  -2.82965422067143E-03  1.70588039147927E-01
 cg2d: Sum(rhs),rhsMax =  -2.82976551645981E-03  1.70594449844207E-01
 cg2d: Sum(rhs),rhsMax =  -2.82987895350588E-03  1.70600863108599E-01
 cg2d: Sum(rhs),rhsMax =  -2.82999455238138E-03  1.70607278936286E-01
 cg2d: Sum(rhs),rhsMax =  -2.83011233437441E-03  1.70613697322433E-01
 cg2d: Sum(rhs),rhsMax =  -2.83023231966005E-03  1.70620118262208E-01
 cg2d: Sum(rhs),rhsMax =  -2.83035452783323E-03  1.70626541750770E-01
 cg2d: Sum(rhs),rhsMax =  -2.83047897949804E-03  1.70632967783260E-01
 cg2d: Sum(rhs),rhsMax =  -2.83060569340714E-03  1.70639396354833E-01
 cg2d: Sum(rhs),rhsMax =  -2.83073468958409E-03  1.70645827460618E-01
 cg2d: Sum(rhs),rhsMax =  -2.83086598585839E-03  1.70652261095753E-01
 cg2d: Sum(rhs),rhsMax =  -2.83099960214933E-03  1.70658697255359E-01
 cg2d: Sum(rhs),rhsMax =  -2.83113555619348E-03  1.70665135934554E-01
 cg2d: Sum(rhs),rhsMax =  -2.83127386632142E-03  1.70671577128449E-01
 cg2d: Sum(rhs),rhsMax =  -2.83141455013011E-03  1.70678020832150E-01
 cg2d: Sum(rhs),rhsMax =  -2.83155762517062E-03  1.70684467040758E-01
 cg2d: Sum(rhs),rhsMax =  -2.83170310926109E-03  1.70690915749358E-01
 cg2d: Sum(rhs),rhsMax =  -2.83185101872229E-03  1.70697366953048E-01
 cg2d: Sum(rhs),rhsMax =  -2.83200137077555E-03  1.70703820646895E-01
 cg2d: Sum(rhs),rhsMax =  -2.83215418125861E-03  1.70710276825980E-01
 cg2d: Sum(rhs),rhsMax =  -2.83230946681655E-03  1.70716735485370E-01
 cg2d: Sum(rhs),rhsMax =  -2.83246724316677E-03  1.70723196620127E-01
 cg2d: Sum(rhs),rhsMax =  -2.83262752528397E-03  1.70729660225299E-01
 cg2d: Sum(rhs),rhsMax =  -2.83279032928388E-03  1.70736126295941E-01
 cg2d: Sum(rhs),rhsMax =  -2.83295566889508E-03  1.70742594827088E-01
 cg2d: Sum(rhs),rhsMax =  -2.83312355989103E-03  1.70749065813788E-01
 cg2d: Sum(rhs),rhsMax =  -2.83329401576365E-03  1.70755539251063E-01
 cg2d: Sum(rhs),rhsMax =  -2.83346705085784E-03  1.70762015133937E-01
 cg2d: Sum(rhs),rhsMax =  -2.83364267967200E-03  1.70768493457427E-01
 cg2d: Sum(rhs),rhsMax =  -2.83382091434892E-03  1.70774974216554E-01
 cg2d: Sum(rhs),rhsMax =  -2.83400176916742E-03  1.70781457406318E-01
 cg2d: Sum(rhs),rhsMax =  -2.83418525635882E-03  1.70787943021715E-01
 cg2d: Sum(rhs),rhsMax =  -2.83437138845162E-03  1.70794431057747E-01
 cg2d: Sum(rhs),rhsMax =  -2.83456017818415E-03  1.70800921509396E-01
 cg2d: Sum(rhs),rhsMax =  -2.83475163738063E-03  1.70807414371648E-01
 cg2d: Sum(rhs),rhsMax =  -2.83494577790136E-03  1.70813909639476E-01
 cg2d: Sum(rhs),rhsMax =  -2.83514261083137E-03  1.70820407307857E-01
 cg2d: Sum(rhs),rhsMax =  -2.83534214712989E-03  1.70826907371749E-01
 cg2d: Sum(rhs),rhsMax =  -2.83554439809686E-03  1.70833409826112E-01
 cg2d: Sum(rhs),rhsMax =  -2.83574937429657E-03  1.70839914665905E-01
 cg2d: Sum(rhs),rhsMax =  -2.83595708556520E-03  1.70846421886072E-01
 cg2d: Sum(rhs),rhsMax =  -2.83616754221490E-03  1.70852931481551E-01
 cg2d: Sum(rhs),rhsMax =  -2.83638075345363E-03  1.70859443447285E-01
 cg2d: Sum(rhs),rhsMax =  -2.83659672934193E-03  1.70865957778196E-01
 cg2d: Sum(rhs),rhsMax =  -2.83681547863976E-03  1.70872474469218E-01
 cg2d: Sum(rhs),rhsMax =  -2.83703701030435E-03  1.70878993515270E-01
 cg2d: Sum(rhs),rhsMax =  -2.83726133279765E-03  1.70885514911260E-01
 cg2d: Sum(rhs),rhsMax =  -2.83748845407028E-03  1.70892038652095E-01
 cg2d: Sum(rhs),rhsMax =  -2.83771838229842E-03  1.70898564732686E-01
 cg2d: Sum(rhs),rhsMax =  -2.83795112544497E-03  1.70905093147921E-01
 cg2d: Sum(rhs),rhsMax =  -2.83818669099513E-03  1.70911623892701E-01
 cg2d: Sum(rhs),rhsMax =  -2.83842508605891E-03  1.70918156961906E-01
 cg2d: Sum(rhs),rhsMax =  -2.83866631726259E-03  1.70924692350420E-01
 cg2d: Sum(rhs),rhsMax =  -2.83891039137355E-03  1.70931230053114E-01
 cg2d: Sum(rhs),rhsMax =  -2.83915731488993E-03  1.70937770064861E-01
 cg2d: Sum(rhs),rhsMax =  -2.83940709366098E-03  1.70944312380530E-01
 cg2d: Sum(rhs),rhsMax =  -2.83965973373310E-03  1.70950856994971E-01
 cg2d: Sum(rhs),rhsMax =  -2.83991524064102E-03  1.70957403903048E-01
 cg2d: Sum(rhs),rhsMax =  -2.84017361930694E-03  1.70963953099607E-01
 cg2d: Sum(rhs),rhsMax =  -2.84043487521789E-03  1.70970504579488E-01
(PID.TID 0000.0001)      cg2d_init_res =   9.07393931938150E-04
(PID.TID 0000.0001)      cg2d_iters(min,last) =      -1      75
(PID.TID 0000.0001)      cg2d_last_res =   9.34352874659030E-08
(PID.TID 0000.0001) // =======================================================
(PID.TID 0000.0001) // Begin MONITOR dynamic field statistics
(PID.TID 0000.0001) // =======================================================
(PID.TID 0000.0001) %MON time_tsnumber                =                  9000
(PID.TID 0000.0001) %MON time_secondsf                =   1.0800000000000E+07
(PID.TID 0000.0001) %MON dynstat_eta_max              =   2.1472938300193E-01
(PID.TID 0000.0001) %MON dynstat_eta_min              =  -7.9677063897144E-02
(PID.TID 0000.0001) %MON dynstat_eta_mean             =   2.4272274492949E-06
(PID.TID 0000.0001) %MON dynstat_eta_sd               =   8.7449412693215E-02
(PID.TID 0000.0001) %MON dynstat_eta_del2             =   2.5432651435733E-05
(PID.TID 0000.0001) %MON dynstat_uvel_max             =   1.2613851761577E-01
(PID.TID 0000.0001) %MON dynstat_uvel_min             =  -7.9107495668540E-02
(PID.TID 0000.0001) %MON dynstat_uvel_mean            =  -4.8423760873410E-08
(PID.TID 0000.0001) %MON dynstat_uvel_sd              =   3.6672032395798E-02
(PID.TID 0000.0001) %MON dynstat_uvel_del2            =   6.3647315556558E-05
(PID.TID 0000.0001) %MON dynstat_vvel_max             =   7.9134831237087E-02
(PID.TID 0000.0001) %MON dynstat_vvel_min             =  -9.1953970979955E-02
(PID.TID 0000.0001) %MON dynstat_vvel_mean            =   1.3550023276840E-07
(PID.TID 0000.0001) %MON dynstat_vvel_sd              =   3.2763005452685E-02
(PID.TID 0000.0001) %MON dynstat_vvel_del2            =   3.9957077260241E-05
(PID.TID 0000.0001) %MON dynstat_wvel_max             =   1.8211593183223E-08
(PID.TID 0000.0001) %MON dynstat_wvel_min             =  -8.5660689837823E-09
(PID.TID 0000.0001) %MON dynstat_wvel_mean            =  -6.2195436435609E-21
(PID.TID 0000.0001) %MON dynstat_wvel_sd              =   6.5870324110944E-09
(PID.TID 0000.0001) %MON dynstat_wvel_del2            =   2.8445530976104E-12
(PID.TID 0000.0001) %MON dynstat_theta_max            =   2.0000000000000E+01
(PID.TID 0000.0001) %MON dynstat_theta_min            =   2.0000000000000E+01
(PID.TID 0000.0001) %MON dynstat_theta_mean           =   2.0000000000000E+01
(PID.TID 0000.0001) %MON dynstat_theta_sd             =   3.8014036363165E-13
(PID.TID 0000.0001) %MON dynstat_theta_del2           =   0.0000000000000E+00
(PID.TID 0000.0001) %MON dynstat_salt_max             =   3.0000000000000E+01
(PID.TID 0000.0001) %MON dynstat_salt_min             =   3.0000000000000E+01
(PID.TID 0000.0001) %MON dynstat_salt_mean            =   2.9999999999999E+01
(PID.TID 0000.0001) %MON dynstat_salt_sd              =   5.5777604757167E-13
(PID.TID 0000.0001) %MON dynstat_salt_del2            =   0.0000000000000E+00
(PID.TID 0000.0001) %MON trAdv_CFL_u_max              =   7.5670407406452E-03
(PID.TID 0000.0001) %MON trAdv_CFL_v_max              =   5.5083285277143E-03
(PID.TID 0000.0001) %MON trAdv_CFL_w_max              =   4.7738832686969E-09
(PID.TID 0000.0001) %MON advcfl_uvel_max              =   7.5683110569465E-03
(PID.TID 0000.0001) %MON advcfl_vvel_max              =   5.5172382587973E-03
(PID.TID 0000.0001) %MON advcfl_wvel_max              =   8.7415647279471E-09
(PID.TID 0000.0001) %MON advcfl_W_hf_max              =   0.0000000000000E+00
(PID.TID 0000.0001) %MON pe_b_mean                    =   7.8403795649572E-06
(PID.TID 0000.0001) %MON ke_max                       =   7.9590450005004E-03
(PID.TID 0000.0001) %MON ke_mean                      =   1.1868920849306E-03
(PID.TID 0000.0001) %MON ke_vol                       =   6.8893493896486E+15
(PID.TID 0000.0001) %MON vort_r_min                   =  -1.1138504782995E-06
(PID.TID 0000.0001) %MON vort_r_max                   =   2.7622868448611E-06
(PID.TID 0000.0001) %MON vort_a_mean                  =   1.0600000000000E-04
(PID.TID 0000.0001) %MON vort_a_sd                    =   3.5507965795216E-06
(PID.TID 0000.0001) %MON vort_p_mean                  =   1.1652272308690E-04
(PID.TID 0000.0001) %MON vort_p_sd                    =   4.1784150508525E-05
(PID.TID 0000.0001) %MON surfExpan_theta_mean         =  -1.2439993233057E-19
(PID.TID 0000.0001) %MON surfExpan_salt_mean          =  -1.8661094891570E-19
(PID.TID 0000.0001) // =======================================================
(PID.TID 0000.0001) // End MONITOR dynamic field statistics
(PID.TID 0000.0001) // =======================================================
 cg2d: Sum(rhs),rhsMax =  -2.84069901251173E-03  1.70977058337533E-01
 cg2d: Sum(rhs),rhsMax =  -2.84096603661009E-03  1.70983614368575E-01
 cg2d: Sum(rhs),rhsMax =  -2.84123595115556E-03  1.70990172667443E-01
 cg2d: Sum(rhs),rhsMax =  -2.84150876058159E-03  1.70996733228956E-01
 cg2d: Sum(rhs),rhsMax =  -2.84178446824511E-03  1.71003296047940E-01
 cg2d: Sum(rhs),rhsMax =  -2.84206307792657E-03  1.71009861119204E-01
 cg2d: Sum(rhs),rhsMax =  -2.84234459259015E-03  1.71016428437550E-01
 cg2d: Sum(rhs),rhsMax =  -2.84262901550327E-03  1.71022997997790E-01
 cg2d: Sum(rhs),rhsMax =  -2.84291634967087E-03  1.71029569794715E-01
 cg2d: Sum(rhs),rhsMax =  -2.84320659770720E-03  1.71036143823124E-01
 cg2d: Sum(rhs),rhsMax =  -2.84349976147209E-03  1.71042720077805E-01
 cg2d: Sum(rhs),rhsMax =  -2.84379584324401E-03  1.71049298553532E-01
 cg2d: Sum(rhs),rhsMax =  -2.84409484465740E-03  1.71055879245095E-01
 cg2d: Sum(rhs),rhsMax =  -2.84439676797614E-03  1.71062462147262E-01
 cg2d: Sum(rhs),rhsMax =  -2.84470161389886E-03  1.71069047254801E-01
 cg2d: Sum(rhs),rhsMax =  -2.84500938384633E-03  1.71075634562478E-01
 cg2d: Sum(rhs),rhsMax =  -2.84532007896080E-03  1.71082224065049E-01
 cg2d: Sum(rhs),rhsMax =  -2.84563369981302E-03  1.71088815757271E-01
 cg2d: Sum(rhs),rhsMax =  -2.84595024714639E-03  1.71095409633895E-01
 cg2d: Sum(rhs),rhsMax =  -2.84626972123062E-03  1.71102005689663E-01
 cg2d: Sum(rhs),rhsMax =  -2.84659212171374E-03  1.71108603919315E-01
 cg2d: Sum(rhs),rhsMax =  -2.84691744933480E-03  1.71115204317589E-01
 cg2d: Sum(rhs),rhsMax =  -2.84724570304625E-03  1.71121806879215E-01
 cg2d: Sum(rhs),rhsMax =  -2.84757688250509E-03  1.71128411598920E-01
 cg2d: Sum(rhs),rhsMax =  -2.84791098723249E-03  1.71135018471425E-01
 cg2d: Sum(rhs),rhsMax =  -2.84824801615853E-03  1.71141627491447E-01
 cg2d: Sum(rhs),rhsMax =  -2.84858796852028E-03  1.71148238653695E-01
 cg2d: Sum(rhs),rhsMax =  -2.84893084255623E-03  1.71154851952886E-01
 cg2d: Sum(rhs),rhsMax =  -2.84927663690921E-03  1.71161467383721E-01
 cg2d: Sum(rhs),rhsMax =  -2.84962535000082E-03  1.71168084940895E-01
 cg2d: Sum(rhs),rhsMax =  -2.84997697987717E-03  1.71174704619107E-01
 cg2d: Sum(rhs),rhsMax =  -2.85033152465293E-03  1.71181326413046E-01
 cg2d: Sum(rhs),rhsMax =  -2.85068898226673E-03  1.71187950317402E-01
 cg2d: Sum(rhs),rhsMax =  -2.85104934981450E-03  1.71194576326851E-01
 cg2d: Sum(rhs),rhsMax =  -2.85141262511317E-03  1.71201204436076E-01
 cg2d: Sum(rhs),rhsMax =  -2.85177880525416E-03  1.71207834639748E-01
 cg2d: Sum(rhs),rhsMax =  -2.85214788750697E-03  1.71214466932539E-01
 cg2d: Sum(rhs),rhsMax =  -2.85251986853273E-03  1.71221101309107E-01
 cg2d: Sum(rhs),rhsMax =  -2.85289474563680E-03  1.71227737764122E-01
 cg2d: Sum(rhs),rhsMax =  -2.85327251478720E-03  1.71234376292232E-01
 cg2d: Sum(rhs),rhsMax =  -2.85365317309733E-03  1.71241016888098E-01
 cg2d: Sum(rhs),rhsMax =  -2.85403671616578E-03  1.71247659546362E-01
 cg2d: Sum(rhs),rhsMax =  -2.85442314092562E-03  1.71254304261673E-01
 cg2d: Sum(rhs),rhsMax =  -2.85481244288670E-03  1.71260951028665E-01
 cg2d: Sum(rhs),rhsMax =  -2.85520461775112E-03  1.71267599841982E-01
 cg2d: Sum(rhs),rhsMax =  -2.85559966174556E-03  1.71274250696251E-01
 cg2d: Sum(rhs),rhsMax =  -2.85599757005901E-03  1.71280903586101E-01
 cg2d: Sum(rhs),rhsMax =  -2.85639833854549E-03  1.71287558506156E-01
 cg2d: Sum(rhs),rhsMax =  -2.85680196165027E-03  1.71294215451040E-01
 cg2d: Sum(rhs),rhsMax =  -2.85720843570144E-03  1.71300874415367E-01
 cg2d: Sum(rhs),rhsMax =  -2.85761775451799E-03  1.71307535393749E-01
 cg2d: Sum(rhs),rhsMax =  -2.85802991376172E-03  1.71314198380798E-01
 cg2d: Sum(rhs),rhsMax =  -2.85844490828317E-03  1.71320863371116E-01
 cg2d: Sum(rhs),rhsMax =  -2.85886273255936E-03  1.71327530359301E-01
 cg2d: Sum(rhs),rhsMax =  -2.85928338094628E-03  1.71334199339959E-01
 cg2d: Sum(rhs),rhsMax =  -2.85970684804991E-03  1.71340870307679E-01
 cg2d: Sum(rhs),rhsMax =  -2.86013312815315E-03  1.71347543257049E-01
 cg2d: Sum(rhs),rhsMax =  -2.86056221541264E-03  1.71354218182660E-01
 cg2d: Sum(rhs),rhsMax =  -2.86099410381246E-03  1.71360895079088E-01
 cg2d: Sum(rhs),rhsMax =  -2.86142878707191E-03  1.71367573940920E-01
 cg2d: Sum(rhs),rhsMax =  -2.86186625990758E-03  1.71374254762725E-01
 cg2d: Sum(rhs),rhsMax =  -2.86230651513458E-03  1.71380937539075E-01
 cg2d: Sum(rhs),rhsMax =  -2.86274954735023E-03  1.71387622264551E-01
 cg2d: Sum(rhs),rhsMax =  -2.86319534942902E-03  1.71394308933699E-01
 cg2d: Sum(rhs),rhsMax =  -2.86364391477691E-03  1.71400997541092E-01
 cg2d: Sum(rhs),rhsMax =  -2.86409523734614E-03  1.71407688081284E-01
 cg2d: Sum(rhs),rhsMax =  -2.86454930985599E-03  1.71414380548834E-01
 cg2d: Sum(rhs),rhsMax =  -2.86500612567481E-03  1.71421074938286E-01
 cg2d: Sum(rhs),rhsMax =  -2.86537936742123E-03  1.71427771176266E-01
 cg2d: Sum(rhs),rhsMax =  -2.86575513448402E-03  1.71434469392824E-01
 cg2d: Sum(rhs),rhsMax =  -2.86613341393213E-03  1.71441169521070E-01
 cg2d: Sum(rhs),rhsMax =  -2.86651422454209E-03  1.71447871543693E-01
(PID.TID 0000.0001)      cg2d_init_res =   8.98020842699378E-04
(PID.TID 0000.0001)      cg2d_iters(min,last) =      -1      76
(PID.TID 0000.0001)      cg2d_last_res =   8.46437321465621E-08
(PID.TID 0000.0001) // =======================================================
(PID.TID 0000.0001) // Begin MONITOR dynamic field statistics
(PID.TID 0000.0001) // =======================================================
(PID.TID 0000.0001) %MON time_tsnumber                =                  9072
(PID.TID 0000.0001) %MON time_secondsf                =   1.0886400000000E+07
(PID.TID 0000.0001) %MON dynstat_eta_max              =   2.1617871521495E-01
(PID.TID 0000.0001) %MON dynstat_eta_min              =  -8.0121766996408E-02
(PID.TID 0000.0001) %MON dynstat_eta_mean             =   2.4564541905281E-06
(PID.TID 0000.0001) %MON dynstat_eta_sd               =   8.7993904853403E-02
(PID.TID 0000.0001) %MON dynstat_eta_del2             =   2.5497120043571E-05
(PID.TID 0000.0001) %MON dynstat_uvel_max             =   1.2647711787238E-01
(PID.TID 0000.0001) %MON dynstat_uvel_min             =  -7.9681803177297E-02
(PID.TID 0000.0001) %MON dynstat_uvel_mean            =  -4.8016822575923E-08
(PID.TID 0000.0001) %MON dynstat_uvel_sd              =   3.6875570925130E-02
(PID.TID 0000.0001) %MON dynstat_uvel_del2            =   6.3715590522052E-05
(PID.TID 0000.0001) %MON dynstat_vvel_max             =   7.9455171716342E-02
(PID.TID 0000.0001) %MON dynstat_vvel_min             =  -9.2689038472669E-02
(PID.TID 0000.0001) %MON dynstat_vvel_mean            =   1.3522811220249E-07
(PID.TID 0000.0001) %MON dynstat_vvel_sd              =   3.2955029060525E-02
(PID.TID 0000.0001) %MON dynstat_vvel_del2            =   3.9985581457145E-05
(PID.TID 0000.0001) %MON dynstat_wvel_max             =   1.8185118002730E-08
(PID.TID 0000.0001) %MON dynstat_wvel_min             =  -8.5796807630686E-09
(PID.TID 0000.0001) %MON dynstat_wvel_mean            =  -5.2579162002075E-21
(PID.TID 0000.0001) %MON dynstat_wvel_sd              =   6.5509060469784E-09
(PID.TID 0000.0001) %MON dynstat_wvel_del2            =   2.8125696644339E-12
(PID.TID 0000.0001) %MON dynstat_theta_max            =   2.0000000000000E+01
(PID.TID 0000.0001) %MON dynstat_theta_min            =   2.0000000000000E+01
(PID.TID 0000.0001) %MON dynstat_theta_mean           =   2.0000000000000E+01
(PID.TID 0000.0001) %MON dynstat_theta_sd             =   3.8014036363165E-13
(PID.TID 0000.0001) %MON dynstat_theta_del2           =   0.0000000000000E+00
(PID.TID 0000.0001) %MON dynstat_salt_max             =   3.0000000000000E+01
(PID.TID 0000.0001) %MON dynstat_salt_min             =   3.0000000000000E+01
(PID.TID 0000.0001) %MON dynstat_salt_mean            =   2.9999999999999E+01
(PID.TID 0000.0001) %MON dynstat_salt_sd              =   5.5777604757167E-13
(PID.TID 0000.0001) %MON dynstat_salt_del2            =   0.0000000000000E+00
(PID.TID 0000.0001) %MON trAdv_CFL_u_max              =   7.5873412152090E-03
(PID.TID 0000.0001) %MON trAdv_CFL_v_max              =   5.5525898114044E-03
(PID.TID 0000.0001) %MON trAdv_CFL_w_max              =   4.7669699229407E-09
(PID.TID 0000.0001) %MON advcfl_uvel_max              =   7.5886270723425E-03
(PID.TID 0000.0001) %MON advcfl_vvel_max              =   5.5613423083601E-03
(PID.TID 0000.0001) %MON advcfl_wvel_max              =   8.7288566413103E-09
(PID.TID 0000.0001) %MON advcfl_W_hf_max              =   0.0000000000000E+00
(PID.TID 0000.0001) %MON pe_b_mean                    =   7.9383176833874E-06
(PID.TID 0000.0001) %MON ke_max                       =   8.0017491996391E-03
(PID.TID 0000.0001) %MON ke_mean                      =   1.2004330140161E-03
(PID.TID 0000.0001) %MON ke_vol                       =   6.8893493896486E+15
(PID.TID 0000.0001) %MON vort_r_min                   =  -1.1091507608199E-06
(PID.TID 0000.0001) %MON vort_r_max                   =   2.7692635118502E-06
(PID.TID 0000.0001) %MON vort_a_mean                  =   1.0600000000000E-04
(PID.TID 0000.0001) %MON vort_a_sd                    =   3.5509686789943E-06
(PID.TID 0000.0001) %MON vort_p_mean                  =   1.1652272308690E-04
(PID.TID 0000.0001) %MON vort_p_sd                    =   4.1784341047068E-05
(PID.TID 0000.0001) %MON surfExpan_theta_mean         =  -1.0508390700813E-19
(PID.TID 0000.0001) %MON surfExpan_salt_mean          =  -1.5763091079337E-19
(PID.TID 0000.0001) // =======================================================
(PID.TID 0000.0001) // End MONITOR dynamic field statistics
(PID.TID 0000.0001) // =======================================================
 cg2d: Sum(rhs),rhsMax =  -2.86689756984185E-03  1.71454575461795E-01
 cg2d: Sum(rhs),rhsMax =  -2.86728344417024E-03  1.71461281270109E-01
 cg2d: Sum(rhs),rhsMax =  -2.86767183653876E-03  1.71467988962564E-01
 cg2d: Sum(rhs),rhsMax =  -2.86806273636861E-03  1.71474698533600E-01
 cg2d: Sum(rhs),rhsMax =  -2.86845613448977E-03  1.71481409977714E-01
 cg2d: Sum(rhs),rhsMax =  -2.86885202381494E-03  1.71488123289222E-01
 cg2d: Sum(rhs),rhsMax =  -2.86925039865459E-03  1.71494838462403E-01
 cg2d: Sum(rhs),rhsMax =  -2.86965125350448E-03  1.71501555491665E-01
 cg2d: Sum(rhs),rhsMax =  -2.87005458250439E-03  1.71508274371531E-01
 cg2d: Sum(rhs),rhsMax =  -2.87046037877501E-03  1.71514995096607E-01
 cg2d: Sum(rhs),rhsMax =  -2.87086863526822E-03  1.71521717661467E-01
 cg2d: Sum(rhs),rhsMax =  -2.87127934489690E-03  1.71528442060661E-01
 cg2d: Sum(rhs),rhsMax =  -2.87169250018549E-03  1.71535168288689E-01
 cg2d: Sum(rhs),rhsMax =  -2.87210809406406E-03  1.71541896340025E-01
 cg2d: Sum(rhs),rhsMax =  -2.87252611977978E-03  1.71548626209148E-01
 cg2d: Sum(rhs),rhsMax =  -2.87294657029355E-03  1.71555357890528E-01
 cg2d: Sum(rhs),rhsMax =  -2.87336943791983E-03  1.71562091378652E-01
 cg2d: Sum(rhs),rhsMax =  -2.87379471640154E-03  1.71568826668000E-01
 cg2d: Sum(rhs),rhsMax =  -2.87422239746894E-03  1.71575563753053E-01
 cg2d: Sum(rhs),rhsMax =  -2.87465247451863E-03  1.71582302628292E-01
 cg2d: Sum(rhs),rhsMax =  -2.87508493974736E-03  1.71589043288179E-01
 cg2d: Sum(rhs),rhsMax =  -2.87551978649512E-03  1.71595785727196E-01
 cg2d: Sum(rhs),rhsMax =  -2.87595700677214E-03  1.71602529939804E-01
 cg2d: Sum(rhs),rhsMax =  -2.87639659341679E-03  1.71609275920478E-01
 cg2d: Sum(rhs),rhsMax =  -2.87683853853404E-03  1.71616023663679E-01
 cg2d: Sum(rhs),rhsMax =  -2.87728283487179E-03  1.71622773163870E-01
 cg2d: Sum(rhs),rhsMax =  -2.87772947534225E-03  1.71629524415508E-01
 cg2d: Sum(rhs),rhsMax =  -2.87817845215084E-03  1.71636277413050E-01
 cg2d: Sum(rhs),rhsMax =  -2.87862975712262E-03  1.71643032150951E-01
 cg2d: Sum(rhs),rhsMax =  -2.87908338323385E-03  1.71649788623650E-01
 cg2d: Sum(rhs),rhsMax =  -2.87953932267455E-03  1.71656546825604E-01
 cg2d: Sum(rhs),rhsMax =  -2.87999756810697E-03  1.71663306751255E-01
 cg2d: Sum(rhs),rhsMax =  -2.88045811139293E-03  1.71670068395045E-01
 cg2d: Sum(rhs),rhsMax =  -2.88092094504083E-03  1.71676831751416E-01
 cg2d: Sum(rhs),rhsMax =  -2.88138606114429E-03  1.71683596814808E-01
 cg2d: Sum(rhs),rhsMax =  -2.88185345231807E-03  1.71690363579653E-01
 cg2d: Sum(rhs),rhsMax =  -2.88232311064810E-03  1.71697132040387E-01
 cg2d: Sum(rhs),rhsMax =  -2.88279502843870E-03  1.71703902191443E-01
 cg2d: Sum(rhs),rhsMax =  -2.88326919777691E-03  1.71710674027250E-01
 cg2d: Sum(rhs),rhsMax =  -2.88374561071661E-03  1.71717447542228E-01
 cg2d: Sum(rhs),rhsMax =  -2.88422425987366E-03  1.71724222730805E-01
 cg2d: Sum(rhs),rhsMax =  -2.88470513714702E-03  1.71730999587407E-01
 cg2d: Sum(rhs),rhsMax =  -2.88518823478716E-03  1.71737778106451E-01
 cg2d: Sum(rhs),rhsMax =  -2.88567354502781E-03  1.71744558282351E-01
 cg2d: Sum(rhs),rhsMax =  -2.88616105930280E-03  1.71751340109529E-01
 cg2d: Sum(rhs),rhsMax =  -2.88665077091521E-03  1.71758123582397E-01
 cg2d: Sum(rhs),rhsMax =  -2.88714267109756E-03  1.71764908695360E-01
 cg2d: Sum(rhs),rhsMax =  -2.88763675246603E-03  1.71771695442837E-01
 cg2d: Sum(rhs),rhsMax =  -2.88813300657573E-03  1.71778483819227E-01
 cg2d: Sum(rhs),rhsMax =  -2.88863142616232E-03  1.71785273818944E-01
 cg2d: Sum(rhs),rhsMax =  -2.88913200286274E-03  1.71792065436385E-01
 cg2d: Sum(rhs),rhsMax =  -2.88963472892930E-03  1.71798858665952E-01
 cg2d: Sum(rhs),rhsMax =  -2.89013959667779E-03  1.71805653502044E-01
 cg2d: Sum(rhs),rhsMax =  -2.89064659798861E-03  1.71812449939065E-01
 cg2d: Sum(rhs),rhsMax =  -2.89115572492066E-03  1.71819247971403E-01
 cg2d: Sum(rhs),rhsMax =  -2.89166696966775E-03  1.71826047593456E-01
 cg2d: Sum(rhs),rhsMax =  -2.89218032419189E-03  1.71832848799617E-01
 cg2d: Sum(rhs),rhsMax =  -2.89269578056051E-03  1.71839651584268E-01
 cg2d: Sum(rhs),rhsMax =  -2.89321333089969E-03  1.71846455941810E-01
 cg2d: Sum(rhs),rhsMax =  -2.89373296764816E-03  1.71853261866619E-01
 cg2d: Sum(rhs),rhsMax =  -2.89425468215334E-03  1.71860069353089E-01
 cg2d: Sum(rhs),rhsMax =  -2.89477846725035E-03  1.71866878395596E-01
 cg2d: Sum(rhs),rhsMax =  -2.89530431506971E-03  1.71873688988524E-01
 cg2d: Sum(rhs),rhsMax =  -2.89583221694172E-03  1.71880501126257E-01
 cg2d: Sum(rhs),rhsMax =  -2.89636216556439E-03  1.71887314803170E-01
 cg2d: Sum(rhs),rhsMax =  -2.89689415328657E-03  1.71894130013636E-01
 cg2d: Sum(rhs),rhsMax =  -2.89742817161079E-03  1.71900946752037E-01
 cg2d: Sum(rhs),rhsMax =  -2.89796421320555E-03  1.71907765012743E-01
 cg2d: Sum(rhs),rhsMax =  -2.89850226963308E-03  1.71914584790129E-01
 cg2d: Sum(rhs),rhsMax =  -2.89904233362257E-03  1.71921406078561E-01
 cg2d: Sum(rhs),rhsMax =  -2.89958439686758E-03  1.71928228872414E-01
 cg2d: Sum(rhs),rhsMax =  -2.90012845195704E-03  1.71935053166052E-01
(PID.TID 0000.0001)      cg2d_init_res =   8.88622930183918E-04
(PID.TID 0000.0001)      cg2d_iters(min,last) =      -1      76
(PID.TID 0000.0001)      cg2d_last_res =   8.78729410111081E-08
(PID.TID 0000.0001) // =======================================================
(PID.TID 0000.0001) // Begin MONITOR dynamic field statistics
(PID.TID 0000.0001) // =======================================================
(PID.TID 0000.0001) %MON time_tsnumber                =                  9144
(PID.TID 0000.0001) %MON time_secondsf                =   1.0972800000000E+07
(PID.TID 0000.0001) %MON dynstat_eta_max              =   2.1762084245321E-01
(PID.TID 0000.0001) %MON dynstat_eta_min              =  -8.0568267851169E-02
(PID.TID 0000.0001) %MON dynstat_eta_mean             =   2.4924593142493E-06
(PID.TID 0000.0001) %MON dynstat_eta_sd               =   8.8535734939027E-02
(PID.TID 0000.0001) %MON dynstat_eta_del2             =   2.5563211343849E-05
(PID.TID 0000.0001) %MON dynstat_uvel_max             =   1.2683151285613E-01
(PID.TID 0000.0001) %MON dynstat_uvel_min             =  -8.0268904048180E-02
(PID.TID 0000.0001) %MON dynstat_uvel_mean            =  -4.7415756233096E-08
(PID.TID 0000.0001) %MON dynstat_uvel_sd              =   3.7079244714039E-02
(PID.TID 0000.0001) %MON dynstat_uvel_del2            =   6.3782313759670E-05
(PID.TID 0000.0001) %MON dynstat_vvel_max             =   7.9731782016691E-02
(PID.TID 0000.0001) %MON dynstat_vvel_min             =  -9.3423926060145E-02
(PID.TID 0000.0001) %MON dynstat_vvel_mean            =   1.3446387983398E-07
(PID.TID 0000.0001) %MON dynstat_vvel_sd              =   3.3146888983772E-02
(PID.TID 0000.0001) %MON dynstat_vvel_del2            =   4.0021489781533E-05
(PID.TID 0000.0001) %MON dynstat_wvel_max             =   1.8160401334753E-08
(PID.TID 0000.0001) %MON dynstat_wvel_min             =  -8.5343489643128E-09
(PID.TID 0000.0001) %MON dynstat_wvel_mean            =  -4.2436815622043E-21
(PID.TID 0000.0001) %MON dynstat_wvel_sd              =   6.5144876087479E-09
(PID.TID 0000.0001) %MON dynstat_wvel_del2            =   2.7802807235813E-12
(PID.TID 0000.0001) %MON dynstat_theta_max            =   2.0000000000000E+01
(PID.TID 0000.0001) %MON dynstat_theta_min            =   2.0000000000000E+01
(PID.TID 0000.0001) %MON dynstat_theta_mean           =   2.0000000000000E+01
(PID.TID 0000.0001) %MON dynstat_theta_sd             =   3.8014036363165E-13
(PID.TID 0000.0001) %MON dynstat_theta_del2           =   0.0000000000000E+00
(PID.TID 0000.0001) %MON dynstat_salt_max             =   3.0000000000000E+01
(PID.TID 0000.0001) %MON dynstat_salt_min             =   3.0000000000000E+01
(PID.TID 0000.0001) %MON dynstat_salt_mean            =   2.9999999999999E+01
(PID.TID 0000.0001) %MON dynstat_salt_sd              =   5.5777604757167E-13
(PID.TID 0000.0001) %MON dynstat_salt_del2            =   0.0000000000000E+00
(PID.TID 0000.0001) %MON trAdv_CFL_u_max              =   7.6085887287342E-03
(PID.TID 0000.0001) %MON trAdv_CFL_v_max              =   5.5966224738369E-03
(PID.TID 0000.0001) %MON trAdv_CFL_w_max              =   4.7605156119994E-09
(PID.TID 0000.0001) %MON advcfl_uvel_max              =   7.6098907713681E-03
(PID.TID 0000.0001) %MON advcfl_vvel_max              =   5.6054355636087E-03
(PID.TID 0000.0001) %MON advcfl_wvel_max              =   8.7169926406816E-09
(PID.TID 0000.0001) %MON advcfl_W_hf_max              =   0.0000000000000E+00
(PID.TID 0000.0001) %MON pe_b_mean                    =   8.0363804282376E-06
(PID.TID 0000.0001) %MON ke_max                       =   8.0465290702500E-03
(PID.TID 0000.0001) %MON ke_mean                      =   1.2140504014642E-03
(PID.TID 0000.0001) %MON ke_vol                       =   6.8893493896486E+15
(PID.TID 0000.0001) %MON vort_r_min                   =  -1.1039997130033E-06
(PID.TID 0000.0001) %MON vort_r_max                   =   2.7765306085653E-06
(PID.TID 0000.0001) %MON vort_a_mean                  =   1.0600000000000E-04
(PID.TID 0000.0001) %MON vort_a_sd                    =   3.5511461034466E-06
(PID.TID 0000.0001) %MON vort_p_mean                  =   1.1652272308690E-04
(PID.TID 0000.0001) %MON vort_p_sd                    =   4.1784525646222E-05
(PID.TID 0000.0001) %MON surfExpan_theta_mean         =  -8.4891062081106E-20
(PID.TID 0000.0001) %MON surfExpan_salt_mean          =  -1.2733217443402E-19
(PID.TID 0000.0001) // =======================================================
(PID.TID 0000.0001) // End MONITOR dynamic field statistics
(PID.TID 0000.0001) // =======================================================
 cg2d: Sum(rhs),rhsMax =  -2.90067449092490E-03  1.71941878953841E-01
 cg2d: Sum(rhs),rhsMax =  -2.90122250587240E-03  1.71948706230151E-01
 cg2d: Sum(rhs),rhsMax =  -2.90177248890524E-03  1.71955534989335E-01
 cg2d: Sum(rhs),rhsMax =  -2.90232443238397E-03  1.71962365225770E-01
 cg2d: Sum(rhs),rhsMax =  -2.90287832831440E-03  1.71969196933806E-01
 cg2d: Sum(rhs),rhsMax =  -2.90343416910494E-03  1.71976030107808E-01
 cg2d: Sum(rhs),rhsMax =  -2.90399194703049E-03  1.71982864742132E-01
 cg2d: Sum(rhs),rhsMax =  -2.90455165447199E-03  1.71989700831134E-01
 cg2d: Sum(rhs),rhsMax =  -2.90511328316883E-03  1.71996538369177E-01
 cg2d: Sum(rhs),rhsMax =  -2.90567682599597E-03  1.72003377350606E-01
 cg2d: Sum(rhs),rhsMax =  -2.90624227485819E-03  1.72010217769782E-01
 cg2d: Sum(rhs),rhsMax =  -2.90680962182859E-03  1.72017059621053E-01
 cg2d: Sum(rhs),rhsMax =  -2.90737886000097E-03  1.72023902898776E-01
 cg2d: Sum(rhs),rhsMax =  -2.90794998087467E-03  1.72030747597301E-01
 cg2d: Sum(rhs),rhsMax =  -2.90852297769441E-03  1.72037593710970E-01
 cg2d: Sum(rhs),rhsMax =  -2.90909784171079E-03  1.72044441234137E-01
 cg2d: Sum(rhs),rhsMax =  -2.90967456622881E-03  1.72051290161147E-01
 cg2d: Sum(rhs),rhsMax =  -2.91025314358057E-03  1.72058140486348E-01
 cg2d: Sum(rhs),rhsMax =  -2.91083356550357E-03  1.72064992204087E-01
 cg2d: Sum(rhs),rhsMax =  -2.91141582482393E-03  1.72071845308705E-01
 cg2d: Sum(rhs),rhsMax =  -2.91199991412274E-03  1.72078699794547E-01
 cg2d: Sum(rhs),rhsMax =  -2.91258582555264E-03  1.72085555655955E-01
 cg2d: Sum(rhs),rhsMax =  -2.91317355154273E-03  1.72092412887275E-01
 cg2d: Sum(rhs),rhsMax =  -2.91376308504311E-03  1.72099271482837E-01
 cg2d: Sum(rhs),rhsMax =  -2.91435441811602E-03  1.72106131436994E-01
 cg2d: Sum(rhs),rhsMax =  -2.91494754349172E-03  1.72112992744080E-01
 cg2d: Sum(rhs),rhsMax =  -2.91554245388603E-03  1.72119855398435E-01
 cg2d: Sum(rhs),rhsMax =  -2.91613914116397E-03  1.72126719394394E-01
 cg2d: Sum(rhs),rhsMax =  -2.91673759879298E-03  1.72133584726296E-01
 cg2d: Sum(rhs),rhsMax =  -2.91733781877075E-03  1.72140451388481E-01
 cg2d: Sum(rhs),rhsMax =  -2.91793979396692E-03  1.72147319375278E-01
 cg2d: Sum(rhs),rhsMax =  -2.91854351677278E-03  1.72154188681025E-01
 cg2d: Sum(rhs),rhsMax =  -2.91914898004173E-03  1.72161059300060E-01
 cg2d: Sum(rhs),rhsMax =  -2.91975617660626E-03  1.72167931226716E-01
 cg2d: Sum(rhs),rhsMax =  -2.92036509836878E-03  1.72174804455322E-01
 cg2d: Sum(rhs),rhsMax =  -2.92097573902165E-03  1.72181678980216E-01
 cg2d: Sum(rhs),rhsMax =  -2.92158809082939E-03  1.72188554795729E-01
 cg2d: Sum(rhs),rhsMax =  -2.92220214656266E-03  1.72195431896193E-01
 cg2d: Sum(rhs),rhsMax =  -2.92281789881769E-03  1.72202310275942E-01
 cg2d: Sum(rhs),rhsMax =  -2.92343534066581E-03  1.72209189929300E-01
 cg2d: Sum(rhs),rhsMax =  -2.92405446469266E-03  1.72216070850603E-01
 cg2d: Sum(rhs),rhsMax =  -2.92467526372109E-03  1.72222953034188E-01
 cg2d: Sum(rhs),rhsMax =  -2.92529773084730E-03  1.72229836474371E-01
 cg2d: Sum(rhs),rhsMax =  -2.92592185862594E-03  1.72236721165494E-01
 cg2d: Sum(rhs),rhsMax =  -2.92654764013715E-03  1.72243607101874E-01
 cg2d: Sum(rhs),rhsMax =  -2.92717506840948E-03  1.72250494277851E-01
 cg2d: Sum(rhs),rhsMax =  -2.92780413577057E-03  1.72257382687754E-01
 cg2d: Sum(rhs),rhsMax =  -2.92843483566238E-03  1.72264272325906E-01
 cg2d: Sum(rhs),rhsMax =  -2.92906716096090E-03  1.72271163186637E-01
 cg2d: Sum(rhs),rhsMax =  -2.92970110446921E-03  1.72278055264275E-01
 cg2d: Sum(rhs),rhsMax =  -2.93033665943170E-03  1.72284948553155E-01
 cg2d: Sum(rhs),rhsMax =  -2.93097381847592E-03  1.72291843047594E-01
 cg2d: Sum(rhs),rhsMax =  -2.93161257517065E-03  1.72298738741925E-01
 cg2d: Sum(rhs),rhsMax =  -2.93225292238903E-03  1.72305635630477E-01
 cg2d: Sum(rhs),rhsMax =  -2.93289485307714E-03  1.72312533707579E-01
 cg2d: Sum(rhs),rhsMax =  -2.93353836059616E-03  1.72319432967553E-01
 cg2d: Sum(rhs),rhsMax =  -2.93418343757764E-03  1.72326333404730E-01
 cg2d: Sum(rhs),rhsMax =  -2.93483007759469E-03  1.72333235013442E-01
 cg2d: Sum(rhs),rhsMax =  -2.93547827329553E-03  1.72340137788010E-01
 cg2d: Sum(rhs),rhsMax =  -2.93612801896427E-03  1.72347041722768E-01
 cg2d: Sum(rhs),rhsMax =  -2.93677930671761E-03  1.72353946812040E-01
 cg2d: Sum(rhs),rhsMax =  -2.93743212992627E-03  1.72360853050153E-01
 cg2d: Sum(rhs),rhsMax =  -2.93808648197660E-03  1.72367760431439E-01
 cg2d: Sum(rhs),rhsMax =  -2.93874235656230E-03  1.72374668950221E-01
 cg2d: Sum(rhs),rhsMax =  -2.93939974631589E-03  1.72381578600835E-01
 cg2d: Sum(rhs),rhsMax =  -2.94005864504700E-03  1.72388489377605E-01
 cg2d: Sum(rhs),rhsMax =  -2.94071904608238E-03  1.72395401274862E-01
 cg2d: Sum(rhs),rhsMax =  -2.94138094232232E-03  1.72402314286931E-01
 cg2d: Sum(rhs),rhsMax =  -2.94204432750138E-03  1.72409228408148E-01
 cg2d: Sum(rhs),rhsMax =  -2.94270919447450E-03  1.72416143632841E-01
 cg2d: Sum(rhs),rhsMax =  -2.94337553752174E-03  1.72423059955337E-01
 cg2d: Sum(rhs),rhsMax =  -2.94404334928376E-03  1.72429977369967E-01
(PID.TID 0000.0001)      cg2d_init_res =   8.79204332533188E-04
(PID.TID 0000.0001)      cg2d_iters(min,last) =      -1      76
(PID.TID 0000.0001)      cg2d_last_res =   8.95795083493639E-08
(PID.TID 0000.0001) // =======================================================
(PID.TID 0000.0001) // Begin MONITOR dynamic field statistics
(PID.TID 0000.0001) // =======================================================
(PID.TID 0000.0001) %MON time_tsnumber                =                  9216
(PID.TID 0000.0001) %MON time_secondsf                =   1.1059200000000E+07
(PID.TID 0000.0001) %MON dynstat_eta_max              =   2.1905568749001E-01
(PID.TID 0000.0001) %MON dynstat_eta_min              =  -8.1020369654125E-02
(PID.TID 0000.0001) %MON dynstat_eta_mean             =   2.5375845895022E-06
(PID.TID 0000.0001) %MON dynstat_eta_sd               =   8.9074746721756E-02
(PID.TID 0000.0001) %MON dynstat_eta_del2             =   2.5631117643931E-05
(PID.TID 0000.0001) %MON dynstat_uvel_max             =   1.2720213860266E-01
(PID.TID 0000.0001) %MON dynstat_uvel_min             =  -8.0864035760955E-02
(PID.TID 0000.0001) %MON dynstat_uvel_mean            =  -4.6828692386543E-08
(PID.TID 0000.0001) %MON dynstat_uvel_sd              =   3.7282624799216E-02
(PID.TID 0000.0001) %MON dynstat_uvel_del2            =   6.3848200117482E-05
(PID.TID 0000.0001) %MON dynstat_vvel_max             =   7.9989516666971E-02
(PID.TID 0000.0001) %MON dynstat_vvel_min             =  -9.4153132026541E-02
(PID.TID 0000.0001) %MON dynstat_vvel_mean            =   1.3328445194876E-07
(PID.TID 0000.0001) %MON dynstat_vvel_sd              =   3.3338923931141E-02
(PID.TID 0000.0001) %MON dynstat_vvel_del2            =   4.0063795292844E-05
(PID.TID 0000.0001) %MON dynstat_wvel_max             =   1.8128820917336E-08
(PID.TID 0000.0001) %MON dynstat_wvel_min             =  -8.4536251066311E-09
(PID.TID 0000.0001) %MON dynstat_wvel_mean            =  -4.1184911323297E-21
(PID.TID 0000.0001) %MON dynstat_wvel_sd              =   6.4782217970678E-09
(PID.TID 0000.0001) %MON dynstat_wvel_del2            =   2.7478844207785E-12
(PID.TID 0000.0001) %MON dynstat_theta_max            =   2.0000000000000E+01
(PID.TID 0000.0001) %MON dynstat_theta_min            =   2.0000000000000E+01
(PID.TID 0000.0001) %MON dynstat_theta_mean           =   2.0000000000000E+01
(PID.TID 0000.0001) %MON dynstat_theta_sd             =   3.8014036363165E-13
(PID.TID 0000.0001) %MON dynstat_theta_del2           =   0.0000000000000E+00
(PID.TID 0000.0001) %MON dynstat_salt_max             =   3.0000000000000E+01
(PID.TID 0000.0001) %MON dynstat_salt_min             =   3.0000000000000E+01
(PID.TID 0000.0001) %MON dynstat_salt_mean            =   2.9999999999999E+01
(PID.TID 0000.0001) %MON dynstat_salt_sd              =   5.5777604757167E-13
(PID.TID 0000.0001) %MON dynstat_salt_del2            =   0.0000000000000E+00
(PID.TID 0000.0001) %MON trAdv_CFL_u_max              =   7.6308097474656E-03
(PID.TID 0000.0001) %MON trAdv_CFL_v_max              =   5.6403163056507E-03
(PID.TID 0000.0001) %MON trAdv_CFL_w_max              =   4.7522622025740E-09
(PID.TID 0000.0001) %MON advcfl_uvel_max              =   7.6321283161596E-03
(PID.TID 0000.0001) %MON advcfl_vvel_max              =   5.6491879215925E-03
(PID.TID 0000.0001) %MON advcfl_wvel_max              =   8.7018340403214E-09
(PID.TID 0000.0001) %MON advcfl_W_hf_max              =   0.0000000000000E+00
(PID.TID 0000.0001) %MON pe_b_mean                    =   8.1345303924236E-06
(PID.TID 0000.0001) %MON ke_max                       =   8.0934787569871E-03
(PID.TID 0000.0001) %MON ke_mean                      =   1.2277396215194E-03
(PID.TID 0000.0001) %MON ke_vol                       =   6.8893493896486E+15
(PID.TID 0000.0001) %MON vort_r_min                   =  -1.0983451517743E-06
(PID.TID 0000.0001) %MON vort_r_max                   =   2.7840808656186E-06
(PID.TID 0000.0001) %MON vort_a_mean                  =   1.0600000000000E-04
(PID.TID 0000.0001) %MON vort_a_sd                    =   3.5513289251797E-06
(PID.TID 0000.0001) %MON vort_p_mean                  =   1.1652272308690E-04
(PID.TID 0000.0001) %MON vort_p_sd                    =   4.1784703889400E-05
(PID.TID 0000.0001) %MON surfExpan_theta_mean         =  -8.2361845738572E-20
(PID.TID 0000.0001) %MON surfExpan_salt_mean          =  -1.2354656063628E-19
(PID.TID 0000.0001) // =======================================================
(PID.TID 0000.0001) // End MONITOR dynamic field statistics
(PID.TID 0000.0001) // =======================================================
 cg2d: Sum(rhs),rhsMax =  -2.94471262353635E-03  1.72436895871071E-01
 cg2d: Sum(rhs),rhsMax =  -2.94538335396264E-03  1.72443815452966E-01
 cg2d: Sum(rhs),rhsMax =  -2.94605553381834E-03  1.72450736109996E-01
 cg2d: Sum(rhs),rhsMax =  -2.94672915659071E-03  1.72457657836486E-01
 cg2d: Sum(rhs),rhsMax =  -2.94740421571242E-03  1.72464580626771E-01
 cg2d: Sum(rhs),rhsMax =  -2.94808070494856E-03  1.72471504475185E-01
 cg2d: Sum(rhs),rhsMax =  -2.94875861760515E-03  1.72478429376063E-01
 cg2d: Sum(rhs),rhsMax =  -2.94943794757312E-03  1.72485355323734E-01
 cg2d: Sum(rhs),rhsMax =  -2.95011868829414E-03  1.72492282312541E-01
 cg2d: Sum(rhs),rhsMax =  -2.95080083359995E-03  1.72499210336814E-01
 cg2d: Sum(rhs),rhsMax =  -2.95148437683697E-03  1.72506139390891E-01
 cg2d: Sum(rhs),rhsMax =  -2.95216931182233E-03  1.72513069469107E-01
 cg2d: Sum(rhs),rhsMax =  -2.95285563236028E-03  1.72520000565799E-01
 cg2d: Sum(rhs),rhsMax =  -2.95354333215121E-03  1.72526932675308E-01
 cg2d: Sum(rhs),rhsMax =  -2.95423240493215E-03  1.72533865791974E-01
 cg2d: Sum(rhs),rhsMax =  -2.95492284406398E-03  1.72540799910136E-01
 cg2d: Sum(rhs),rhsMax =  -2.95561464396067E-03  1.72547735024126E-01
 cg2d: Sum(rhs),rhsMax =  -2.95630779804157E-03  1.72554671128299E-01
 cg2d: Sum(rhs),rhsMax =  -2.95700230042921E-03  1.72561608216987E-01
 cg2d: Sum(rhs),rhsMax =  -2.95769814414721E-03  1.72568546284538E-01
 cg2d: Sum(rhs),rhsMax =  -2.95839532389644E-03  1.72575485325292E-01
 cg2d: Sum(rhs),rhsMax =  -2.95909383331157E-03  1.72582425333596E-01
 cg2d: Sum(rhs),rhsMax =  -2.95979366607422E-03  1.72589366303795E-01
 cg2d: Sum(rhs),rhsMax =  -2.96049481628427E-03  1.72596308230236E-01
 cg2d: Sum(rhs),rhsMax =  -2.96119727759245E-03  1.72603251107266E-01
 cg2d: Sum(rhs),rhsMax =  -2.96190104467603E-03  1.72610194929233E-01
 cg2d: Sum(rhs),rhsMax =  -2.96260611078003E-03  1.72617139690486E-01
 cg2d: Sum(rhs),rhsMax =  -2.96331247034362E-03  1.72624085385379E-01
 cg2d: Sum(rhs),rhsMax =  -2.96402011688926E-03  1.72631032008259E-01
 cg2d: Sum(rhs),rhsMax =  -2.96472904509463E-03  1.72637979553478E-01
 cg2d: Sum(rhs),rhsMax =  -2.96543924847261E-03  1.72644928015396E-01
 cg2d: Sum(rhs),rhsMax =  -2.96615072165088E-03  1.72651877388360E-01
 cg2d: Sum(rhs),rhsMax =  -2.96686345821393E-03  1.72658827666734E-01
 cg2d: Sum(rhs),rhsMax =  -2.96757745213813E-03  1.72665778844868E-01
 cg2d: Sum(rhs),rhsMax =  -2.96829269815432E-03  1.72672730917123E-01
 cg2d: Sum(rhs),rhsMax =  -2.96900918994512E-03  1.72679683877861E-01
 cg2d: Sum(rhs),rhsMax =  -2.96972692204455E-03  1.72686637721438E-01
 cg2d: Sum(rhs),rhsMax =  -2.97044588803124E-03  1.72693592442218E-01
 cg2d: Sum(rhs),rhsMax =  -2.97116608283232E-03  1.72700548034566E-01
 cg2d: Sum(rhs),rhsMax =  -2.97188750031701E-03  1.72707504492848E-01
 cg2d: Sum(rhs),rhsMax =  -2.97261013457802E-03  1.72714461811422E-01
 cg2d: Sum(rhs),rhsMax =  -2.97333398022562E-03  1.72721419984665E-01
 cg2d: Sum(rhs),rhsMax =  -2.97405903146987E-03  1.72728379006938E-01
 cg2d: Sum(rhs),rhsMax =  -2.97478528265008E-03  1.72735338872618E-01
 cg2d: Sum(rhs),rhsMax =  -2.97551272756571E-03  1.72742299576070E-01
 cg2d: Sum(rhs),rhsMax =  -2.97624136117262E-03  1.72749261111672E-01
 cg2d: Sum(rhs),rhsMax =  -2.97697117747887E-03  1.72756223473792E-01
 cg2d: Sum(rhs),rhsMax =  -2.97770217113185E-03  1.72763186656815E-01
 cg2d: Sum(rhs),rhsMax =  -2.97843433624711E-03  1.72770150655114E-01
 cg2d: Sum(rhs),rhsMax =  -2.97916766718778E-03  1.72777115463064E-01
 cg2d: Sum(rhs),rhsMax =  -2.97990215870212E-03  1.72784081075048E-01
 cg2d: Sum(rhs),rhsMax =  -2.98063780504938E-03  1.72791047485451E-01
 cg2d: Sum(rhs),rhsMax =  -2.98137460073386E-03  1.72798014688659E-01
 cg2d: Sum(rhs),rhsMax =  -2.98211254022655E-03  1.72804982679046E-01
 cg2d: Sum(rhs),rhsMax =  -2.98285161817386E-03  1.72811951451013E-01
 cg2d: Sum(rhs),rhsMax =  -2.98359182891137E-03  1.72818920998937E-01
 cg2d: Sum(rhs),rhsMax =  -2.98433316700140E-03  1.72825891317217E-01
 cg2d: Sum(rhs),rhsMax =  -2.98507562690466E-03  1.72832862400240E-01
 cg2d: Sum(rhs),rhsMax =  -2.98581920344309E-03  1.72839834242401E-01
 cg2d: Sum(rhs),rhsMax =  -2.98656389096858E-03  1.72846806838096E-01
 cg2d: Sum(rhs),rhsMax =  -2.98730968432648E-03  1.72853780181723E-01
 cg2d: Sum(rhs),rhsMax =  -2.98805657799947E-03  1.72860754267680E-01
 cg2d: Sum(rhs),rhsMax =  -2.98880456647934E-03  1.72867729090364E-01
 cg2d: Sum(rhs),rhsMax =  -2.98955364508359E-03  1.72874704644192E-01
 cg2d: Sum(rhs),rhsMax =  -2.99030380774251E-03  1.72881680923553E-01
 cg2d: Sum(rhs),rhsMax =  -2.99105504936792E-03  1.72888657922863E-01
 cg2d: Sum(rhs),rhsMax =  -2.99180736490190E-03  1.72895635636522E-01
 cg2d: Sum(rhs),rhsMax =  -2.99256074873475E-03  1.72902614058953E-01
 cg2d: Sum(rhs),rhsMax =  -2.99331519592204E-03  1.72909593184558E-01
 cg2d: Sum(rhs),rhsMax =  -2.99407070093966E-03  1.72916573007755E-01
 cg2d: Sum(rhs),rhsMax =  -2.99482725884621E-03  1.72923553522959E-01
 cg2d: Sum(rhs),rhsMax =  -2.99558486451126E-03  1.72930534724597E-01
(PID.TID 0000.0001)      cg2d_init_res =   8.69788891595076E-04
(PID.TID 0000.0001)      cg2d_iters(min,last) =      -1      76
(PID.TID 0000.0001)      cg2d_last_res =   9.06204965980645E-08
(PID.TID 0000.0001) // =======================================================
(PID.TID 0000.0001) // Begin MONITOR dynamic field statistics
(PID.TID 0000.0001) // =======================================================
(PID.TID 0000.0001) %MON time_tsnumber                =                  9288
(PID.TID 0000.0001) %MON time_secondsf                =   1.1145600000000E+07
(PID.TID 0000.0001) %MON dynstat_eta_max              =   2.2048324185802E-01
(PID.TID 0000.0001) %MON dynstat_eta_min              =  -8.1471407318196E-02
(PID.TID 0000.0001) %MON dynstat_eta_mean             =   2.5895734457548E-06
(PID.TID 0000.0001) %MON dynstat_eta_sd               =   8.9610844285340E-02
(PID.TID 0000.0001) %MON dynstat_eta_del2             =   2.5701001887300E-05
(PID.TID 0000.0001) %MON dynstat_uvel_max             =   1.2758906952870E-01
(PID.TID 0000.0001) %MON dynstat_uvel_min             =  -8.1467311793381E-02
(PID.TID 0000.0001) %MON dynstat_uvel_mean            =  -4.6448922222638E-08
(PID.TID 0000.0001) %MON dynstat_uvel_sd              =   3.7485289479466E-02
(PID.TID 0000.0001) %MON dynstat_uvel_del2            =   6.3913919289626E-05
(PID.TID 0000.0001) %MON dynstat_vvel_max             =   8.0286754172917E-02
(PID.TID 0000.0001) %MON dynstat_vvel_min             =  -9.4874738733081E-02
(PID.TID 0000.0001) %MON dynstat_vvel_mean            =   1.3179738155247E-07
(PID.TID 0000.0001) %MON dynstat_vvel_sd              =   3.3531458408254E-02
(PID.TID 0000.0001) %MON dynstat_vvel_del2            =   4.0111479004859E-05
(PID.TID 0000.0001) %MON dynstat_wvel_max             =   1.8097566986107E-08
(PID.TID 0000.0001) %MON dynstat_wvel_min             =  -8.3304100310488E-09
(PID.TID 0000.0001) %MON dynstat_wvel_mean            =  -8.4660577057447E-21
(PID.TID 0000.0001) %MON dynstat_wvel_sd              =   6.4424429495154E-09
(PID.TID 0000.0001) %MON dynstat_wvel_del2            =   2.7157162051170E-12
(PID.TID 0000.0001) %MON dynstat_theta_max            =   2.0000000000000E+01
(PID.TID 0000.0001) %MON dynstat_theta_min            =   2.0000000000000E+01
(PID.TID 0000.0001) %MON dynstat_theta_mean           =   2.0000000000000E+01
(PID.TID 0000.0001) %MON dynstat_theta_sd             =   3.8014036363165E-13
(PID.TID 0000.0001) %MON dynstat_theta_del2           =   0.0000000000000E+00
(PID.TID 0000.0001) %MON dynstat_salt_max             =   3.0000000000000E+01
(PID.TID 0000.0001) %MON dynstat_salt_min             =   3.0000000000000E+01
(PID.TID 0000.0001) %MON dynstat_salt_mean            =   2.9999999999999E+01
(PID.TID 0000.0001) %MON dynstat_salt_sd              =   5.5777604757167E-13
(PID.TID 0000.0001) %MON dynstat_salt_del2            =   0.0000000000000E+00
(PID.TID 0000.0001) %MON trAdv_CFL_u_max              =   7.6540090302815E-03
(PID.TID 0000.0001) %MON trAdv_CFL_v_max              =   5.6835564671048E-03
(PID.TID 0000.0001) %MON trAdv_CFL_w_max              =   4.7422611070843E-09
(PID.TID 0000.0001) %MON advcfl_uvel_max              =   7.6553441717218E-03
(PID.TID 0000.0001) %MON advcfl_vvel_max              =   5.6924843239849E-03
(PID.TID 0000.0001) %MON advcfl_wvel_max              =   8.6868321533315E-09
(PID.TID 0000.0001) %MON advcfl_W_hf_max              =   0.0000000000000E+00
(PID.TID 0000.0001) %MON pe_b_mean                    =   8.2327406072685E-06
(PID.TID 0000.0001) %MON ke_max                       =   8.1426466659098E-03
(PID.TID 0000.0001) %MON ke_mean                      =   1.2414957612613E-03
(PID.TID 0000.0001) %MON ke_vol                       =   6.8893493896486E+15
(PID.TID 0000.0001) %MON vort_r_min                   =  -1.0922461646736E-06
(PID.TID 0000.0001) %MON vort_r_max                   =   2.7919011335341E-06
(PID.TID 0000.0001) %MON vort_a_mean                  =   1.0600000000000E-04
(PID.TID 0000.0001) %MON vort_a_sd                    =   3.5515171477899E-06
(PID.TID 0000.0001) %MON vort_p_mean                  =   1.1652272308690E-04
(PID.TID 0000.0001) %MON vort_p_sd                    =   4.1784875401801E-05
(PID.TID 0000.0001) %MON surfExpan_theta_mean         =  -1.6928159614811E-19
(PID.TID 0000.0001) %MON surfExpan_salt_mean          =  -2.5392113103509E-19
(PID.TID 0000.0001) // =======================================================
(PID.TID 0000.0001) // End MONITOR dynamic field statistics
(PID.TID 0000.0001) // =======================================================
 cg2d: Sum(rhs),rhsMax =  -2.99634351210763E-03  1.72937516607077E-01
 cg2d: Sum(rhs),rhsMax =  -2.99710319726639E-03  1.72944499164828E-01
 cg2d: Sum(rhs),rhsMax =  -2.99786391437817E-03  1.72951482392276E-01
 cg2d: Sum(rhs),rhsMax =  -2.99862565861914E-03  1.72958466283846E-01
 cg2d: Sum(rhs),rhsMax =  -2.99938842472221E-03  1.72965450833965E-01
 cg2d: Sum(rhs),rhsMax =  -3.00015220746700E-03  1.72972436037072E-01
 cg2d: Sum(rhs),rhsMax =  -3.00091700194324E-03  1.72979421887591E-01
 cg2d: Sum(rhs),rhsMax =  -3.00168280312889E-03  1.72986408379963E-01
 cg2d: Sum(rhs),rhsMax =  -3.00244960562481E-03  1.72993395508622E-01
 cg2d: Sum(rhs),rhsMax =  -3.00321740488937E-03  1.73000383268015E-01
 cg2d: Sum(rhs),rhsMax =  -3.00398619544225E-03  1.73007371652576E-01
 cg2d: Sum(rhs),rhsMax =  -3.00475597233678E-03  1.73014360656759E-01
 cg2d: Sum(rhs),rhsMax =  -3.00552673082546E-03  1.73021350275002E-01
 cg2d: Sum(rhs),rhsMax =  -3.00629846605489E-03  1.73028340501759E-01
 cg2d: Sum(rhs),rhsMax =  -3.00707117282549E-03  1.73035331331479E-01
 cg2d: Sum(rhs),rhsMax =  -3.00784484664239E-03  1.73042322758622E-01
 cg2d: Sum(rhs),rhsMax =  -3.00861948166285E-03  1.73049314777639E-01
 cg2d: Sum(rhs),rhsMax =  -3.00939507412872E-03  1.73056307382991E-01
 cg2d: Sum(rhs),rhsMax =  -3.01017161808604E-03  1.73063300569139E-01
 cg2d: Sum(rhs),rhsMax =  -3.01094910963380E-03  1.73070294330549E-01
 cg2d: Sum(rhs),rhsMax =  -3.01172754290328E-03  1.73077288661681E-01
 cg2d: Sum(rhs),rhsMax =  -3.01250691388038E-03  1.73084283557011E-01
 cg2d: Sum(rhs),rhsMax =  -3.01328721739367E-03  1.73091279011007E-01
 cg2d: Sum(rhs),rhsMax =  -3.01406844910949E-03  1.73098275018146E-01
 cg2d: Sum(rhs),rhsMax =  -3.01485060321289E-03  1.73105271572900E-01
 cg2d: Sum(rhs),rhsMax =  -3.01563367593089E-03  1.73112268669751E-01
 cg2d: Sum(rhs),rhsMax =  -3.01641766232357E-03  1.73119266303182E-01
 cg2d: Sum(rhs),rhsMax =  -3.01720255743564E-03  1.73126264467678E-01
 cg2d: Sum(rhs),rhsMax =  -3.01798835649364E-03  1.73133263157721E-01
 cg2d: Sum(rhs),rhsMax =  -3.01877505487120E-03  1.73140262367804E-01
 cg2d: Sum(rhs),rhsMax =  -3.01956264747314E-03  1.73147262092417E-01
 cg2d: Sum(rhs),rhsMax =  -3.02035113041173E-03  1.73154262326062E-01
 cg2d: Sum(rhs),rhsMax =  -3.02113059702507E-03  1.73161830581630E-01
 cg2d: Sum(rhs),rhsMax =  -3.02190911596750E-03  1.73169503858459E-01
 cg2d: Sum(rhs),rhsMax =  -3.02268850179253E-03  1.73177177865009E-01
 cg2d: Sum(rhs),rhsMax =  -3.02346874940756E-03  1.73184852595052E-01
 cg2d: Sum(rhs),rhsMax =  -3.02424985502409E-03  1.73192528042358E-01
 cg2d: Sum(rhs),rhsMax =  -3.02503181337865E-03  1.73200204200711E-01
 cg2d: Sum(rhs),rhsMax =  -3.02581462006027E-03  1.73207881063882E-01
 cg2d: Sum(rhs),rhsMax =  -3.02659827065948E-03  1.73215558625648E-01
 cg2d: Sum(rhs),rhsMax =  -3.02738276059602E-03  1.73223236879797E-01
 cg2d: Sum(rhs),rhsMax =  -3.02816808511597E-03  1.73230915820104E-01
 cg2d: Sum(rhs),rhsMax =  -3.02895424004495E-03  1.73238595440357E-01
 cg2d: Sum(rhs),rhsMax =  -3.02974122062276E-03  1.73246275734336E-01
 cg2d: Sum(rhs),rhsMax =  -3.03052902252430E-03  1.73253956695833E-01
 cg2d: Sum(rhs),rhsMax =  -3.03131764108536E-03  1.73261638318637E-01
 cg2d: Sum(rhs),rhsMax =  -3.03210707226047E-03  1.73269320596533E-01
 cg2d: Sum(rhs),rhsMax =  -3.03289731074976E-03  1.73277003523320E-01
 cg2d: Sum(rhs),rhsMax =  -3.03368835283349E-03  1.73284687092785E-01
 cg2d: Sum(rhs),rhsMax =  -3.03448019422961E-03  1.73292371298727E-01
 cg2d: Sum(rhs),rhsMax =  -3.03527283043577E-03  1.73300056134940E-01
 cg2d: Sum(rhs),rhsMax =  -3.03606625653607E-03  1.73307741595224E-01
 cg2d: Sum(rhs),rhsMax =  -3.03686046885544E-03  1.73315427673381E-01
 cg2d: Sum(rhs),rhsMax =  -3.03765546258112E-03  1.73323114363214E-01
 cg2d: Sum(rhs),rhsMax =  -3.03845123344471E-03  1.73330801658528E-01
 cg2d: Sum(rhs),rhsMax =  -3.03924777782807E-03  1.73338489553127E-01
 cg2d: Sum(rhs),rhsMax =  -3.04004509025314E-03  1.73346178040822E-01
 cg2d: Sum(rhs),rhsMax =  -3.04084316711675E-03  1.73353867115422E-01
 cg2d: Sum(rhs),rhsMax =  -3.04164200417963E-03  1.73361556770736E-01
 cg2d: Sum(rhs),rhsMax =  -3.04244159654161E-03  1.73369247000583E-01
 cg2d: Sum(rhs),rhsMax =  -3.04324194092511E-03  1.73376937798775E-01
 cg2d: Sum(rhs),rhsMax =  -3.04404303260438E-03  1.73384629159137E-01
 cg2d: Sum(rhs),rhsMax =  -3.04484486690586E-03  1.73392321075485E-01
 cg2d: Sum(rhs),rhsMax =  -3.04564744077623E-03  1.73400013541639E-01
 cg2d: Sum(rhs),rhsMax =  -3.04645074893434E-03  1.73407706551428E-01
 cg2d: Sum(rhs),rhsMax =  -3.04725478776310E-03  1.73415400098677E-01
 cg2d: Sum(rhs),rhsMax =  -3.04805955282915E-03  1.73423094177216E-01
 cg2d: Sum(rhs),rhsMax =  -3.04886503992896E-03  1.73430788780873E-01
 cg2d: Sum(rhs),rhsMax =  -3.04967124503022E-03  1.73438483903482E-01
 cg2d: Sum(rhs),rhsMax =  -3.05047816412275E-03  1.73446179538883E-01
 cg2d: Sum(rhs),rhsMax =  -3.05128579291887E-03  1.73453875680908E-01
 cg2d: Sum(rhs),rhsMax =  -3.05209412787491E-03  1.73461572323401E-01
(PID.TID 0000.0001)      cg2d_init_res =   8.60276250058391E-04
(PID.TID 0000.0001)      cg2d_iters(min,last) =      -1      76
(PID.TID 0000.0001)      cg2d_last_res =   9.15765752002280E-08
(PID.TID 0000.0001) // =======================================================
(PID.TID 0000.0001) // Begin MONITOR dynamic field statistics
(PID.TID 0000.0001) // =======================================================
(PID.TID 0000.0001) %MON time_tsnumber                =                  9360
(PID.TID 0000.0001) %MON time_secondsf                =   1.1232000000000E+07
(PID.TID 0000.0001) %MON dynstat_eta_max              =   2.2190355982586E-01
(PID.TID 0000.0001) %MON dynstat_eta_min              =  -8.1918322743987E-02
(PID.TID 0000.0001) %MON dynstat_eta_mean             =   2.6465676053478E-06
(PID.TID 0000.0001) %MON dynstat_eta_sd               =   9.0143989057153E-02
(PID.TID 0000.0001) %MON dynstat_eta_del2             =   2.5772996507765E-05
(PID.TID 0000.0001) %MON dynstat_uvel_max             =   1.2799203715447E-01
(PID.TID 0000.0001) %MON dynstat_uvel_min             =  -8.2070526164301E-02
(PID.TID 0000.0001) %MON dynstat_uvel_mean            =  -4.6443267365969E-08
(PID.TID 0000.0001) %MON dynstat_uvel_sd              =   3.7686844918179E-02
(PID.TID 0000.0001) %MON dynstat_uvel_del2            =   6.3980091487205E-05
(PID.TID 0000.0001) %MON dynstat_vvel_max             =   8.0539909424098E-02
(PID.TID 0000.0001) %MON dynstat_vvel_min             =  -9.5586787695882E-02
(PID.TID 0000.0001) %MON dynstat_vvel_mean            =   1.3013629361108E-07
(PID.TID 0000.0001) %MON dynstat_vvel_sd              =   3.3724780920204E-02
(PID.TID 0000.0001) %MON dynstat_vvel_del2            =   4.0163528232732E-05
(PID.TID 0000.0001) %MON dynstat_wvel_max             =   1.8079614679009E-08
(PID.TID 0000.0001) %MON dynstat_wvel_min             =  -8.1653314853611E-09
(PID.TID 0000.0001) %MON dynstat_wvel_mean            =  -2.1070395127430E-21
(PID.TID 0000.0001) %MON dynstat_wvel_sd              =   6.4073775461370E-09
(PID.TID 0000.0001) %MON dynstat_wvel_del2            =   2.6840986898779E-12
(PID.TID 0000.0001) %MON dynstat_theta_max            =   2.0000000000000E+01
(PID.TID 0000.0001) %MON dynstat_theta_min            =   2.0000000000000E+01
(PID.TID 0000.0001) %MON dynstat_theta_mean           =   2.0000000000000E+01
(PID.TID 0000.0001) %MON dynstat_theta_sd             =   3.8014036363165E-13
(PID.TID 0000.0001) %MON dynstat_theta_del2           =   0.0000000000000E+00
(PID.TID 0000.0001) %MON dynstat_salt_max             =   3.0000000000000E+01
(PID.TID 0000.0001) %MON dynstat_salt_min             =   3.0000000000000E+01
(PID.TID 0000.0001) %MON dynstat_salt_mean            =   2.9999999999999E+01
(PID.TID 0000.0001) %MON dynstat_salt_sd              =   5.5777604757167E-13
(PID.TID 0000.0001) %MON dynstat_salt_del2            =   0.0000000000000E+00
(PID.TID 0000.0001) %MON trAdv_CFL_u_max              =   7.6781707469024E-03
(PID.TID 0000.0001) %MON trAdv_CFL_v_max              =   5.7262256384821E-03
(PID.TID 0000.0001) %MON trAdv_CFL_w_max              =   4.7306216276842E-09
(PID.TID 0000.0001) %MON advcfl_uvel_max              =   7.6795222292683E-03
(PID.TID 0000.0001) %MON advcfl_vvel_max              =   5.7352072617529E-03
(PID.TID 0000.0001) %MON advcfl_wvel_max              =   8.6782150459243E-09
(PID.TID 0000.0001) %MON advcfl_W_hf_max              =   0.0000000000000E+00
(PID.TID 0000.0001) %MON pe_b_mean                    =   8.3309943327150E-06
(PID.TID 0000.0001) %MON ke_max                       =   8.1940367975345E-03
(PID.TID 0000.0001) %MON ke_mean                      =   1.2553136581610E-03
(PID.TID 0000.0001) %MON ke_vol                       =   6.8893493896486E+15
(PID.TID 0000.0001) %MON vort_r_min                   =  -1.0857681425593E-06
(PID.TID 0000.0001) %MON vort_r_max                   =   2.7999730095974E-06
(PID.TID 0000.0001) %MON vort_a_mean                  =   1.0600000000000E-04
(PID.TID 0000.0001) %MON vort_a_sd                    =   3.5517107109127E-06
(PID.TID 0000.0001) %MON vort_p_mean                  =   1.1652272308690E-04
(PID.TID 0000.0001) %MON vort_p_sd                    =   4.1785039871615E-05
(PID.TID 0000.0001) %MON surfExpan_theta_mean         =  -4.2085762035842E-20
(PID.TID 0000.0001) %MON surfExpan_salt_mean          =  -6.3136301125471E-20
(PID.TID 0000.0001) // =======================================================
(PID.TID 0000.0001) // End MONITOR dynamic field statistics
(PID.TID 0000.0001) // =======================================================
 cg2d: Sum(rhs),rhsMax =  -3.05290316396229E-03  1.73469269460200E-01
 cg2d: Sum(rhs),rhsMax =  -3.05371289776186E-03  1.73476967085156E-01
 cg2d: Sum(rhs),rhsMax =  -3.05452332498430E-03  1.73484665192112E-01
 cg2d: Sum(rhs),rhsMax =  -3.05533444171883E-03  1.73492363774916E-01
 cg2d: Sum(rhs),rhsMax =  -3.05614624384306E-03  1.73500062827424E-01
 cg2d: Sum(rhs),rhsMax =  -3.05695872734441E-03  1.73507762343484E-01
 cg2d: Sum(rhs),rhsMax =  -3.05777188872172E-03  1.73515462316956E-01
 cg2d: Sum(rhs),rhsMax =  -3.05858572351677E-03  1.73523162741702E-01
 cg2d: Sum(rhs),rhsMax =  -3.05940022746802E-03  1.73530863611577E-01
 cg2d: Sum(rhs),rhsMax =  -3.06021539677767E-03  1.73538564920455E-01
 cg2d: Sum(rhs),rhsMax =  -3.06103122778281E-03  1.73546266662193E-01
 cg2d: Sum(rhs),rhsMax =  -3.06184771621826E-03  1.73553968830665E-01
 cg2d: Sum(rhs),rhsMax =  -3.06266485818363E-03  1.73561671419739E-01
 cg2d: Sum(rhs),rhsMax =  -3.06348265014155E-03  1.73569374423291E-01
 cg2d: Sum(rhs),rhsMax =  -3.06430108803857E-03  1.73577077835203E-01
 cg2d: Sum(rhs),rhsMax =  -3.06512016793043E-03  1.73584781649345E-01
 cg2d: Sum(rhs),rhsMax =  -3.06593988590082E-03  1.73592485859605E-01
 cg2d: Sum(rhs),rhsMax =  -3.06676023787729E-03  1.73600190459871E-01
 cg2d: Sum(rhs),rhsMax =  -3.06758122056899E-03  1.73607895444023E-01
 cg2d: Sum(rhs),rhsMax =  -3.06840282975549E-03  1.73615600805956E-01
 cg2d: Sum(rhs),rhsMax =  -3.06922506177942E-03  1.73623306539561E-01
 cg2d: Sum(rhs),rhsMax =  -3.07004791257930E-03  1.73631012638738E-01
 cg2d: Sum(rhs),rhsMax =  -3.07087137900118E-03  1.73638719097382E-01
 cg2d: Sum(rhs),rhsMax =  -3.07169545655541E-03  1.73646425909396E-01
 cg2d: Sum(rhs),rhsMax =  -3.07252014187857E-03  1.73654133068685E-01
 cg2d: Sum(rhs),rhsMax =  -3.07334543124011E-03  1.73661840569150E-01
 cg2d: Sum(rhs),rhsMax =  -3.07417132018571E-03  1.73669548404711E-01
 cg2d: Sum(rhs),rhsMax =  -3.07499780607115E-03  1.73677256569273E-01
 cg2d: Sum(rhs),rhsMax =  -3.07582488460281E-03  1.73684965056760E-01
 cg2d: Sum(rhs),rhsMax =  -3.07665255208201E-03  1.73692673861080E-01
 cg2d: Sum(rhs),rhsMax =  -3.07748080467480E-03  1.73700382976165E-01
 cg2d: Sum(rhs),rhsMax =  -3.07830963898602E-03  1.73708092395935E-01
 cg2d: Sum(rhs),rhsMax =  -3.07913905137027E-03  1.73715802114322E-01
 cg2d: Sum(rhs),rhsMax =  -3.07996903780502E-03  1.73723512125250E-01
 cg2d: Sum(rhs),rhsMax =  -3.08079959543290E-03  1.73731222422656E-01
 cg2d: Sum(rhs),rhsMax =  -3.08163071983015E-03  1.73738933000478E-01
 cg2d: Sum(rhs),rhsMax =  -3.08246240753557E-03  1.73746643852658E-01
 cg2d: Sum(rhs),rhsMax =  -3.08329465531437E-03  1.73754354973139E-01
 cg2d: Sum(rhs),rhsMax =  -3.08412745923449E-03  1.73762066355867E-01
 cg2d: Sum(rhs),rhsMax =  -3.08496081559199E-03  1.73769777994788E-01
 cg2d: Sum(rhs),rhsMax =  -3.08579472143562E-03  1.73777489883858E-01
 cg2d: Sum(rhs),rhsMax =  -3.08662917278854E-03  1.73785202017037E-01
 cg2d: Sum(rhs),rhsMax =  -3.08746416592433E-03  1.73792914388279E-01
 cg2d: Sum(rhs),rhsMax =  -3.08829969797993E-03  1.73800626991547E-01
 cg2d: Sum(rhs),rhsMax =  -3.08913576463152E-03  1.73808339820811E-01
 cg2d: Sum(rhs),rhsMax =  -3.08997236255570E-03  1.73816052870033E-01
 cg2d: Sum(rhs),rhsMax =  -3.09080948881129E-03  1.73823766133197E-01
 cg2d: Sum(rhs),rhsMax =  -3.09164713939697E-03  1.73831479604265E-01
 cg2d: Sum(rhs),rhsMax =  -3.09248531106456E-03  1.73839193277228E-01
 cg2d: Sum(rhs),rhsMax =  -3.09332400009254E-03  1.73846907146063E-01
 cg2d: Sum(rhs),rhsMax =  -3.09416320354012E-03  1.73854621204757E-01
 cg2d: Sum(rhs),rhsMax =  -3.09500291723773E-03  1.73862335447299E-01
 cg2d: Sum(rhs),rhsMax =  -3.09584313842145E-03  1.73870049867686E-01
 cg2d: Sum(rhs),rhsMax =  -3.09668386395330E-03  1.73877764459907E-01
 cg2d: Sum(rhs),rhsMax =  -3.09752508925697E-03  1.73885479217970E-01
 cg2d: Sum(rhs),rhsMax =  -3.09836681164061E-03  1.73893194135873E-01
 cg2d: Sum(rhs),rhsMax =  -3.09920902800630E-03  1.73900909207627E-01
 cg2d: Sum(rhs),rhsMax =  -3.10005173481135E-03  1.73908624427239E-01
 cg2d: Sum(rhs),rhsMax =  -3.10089492858735E-03  1.73916339788727E-01
 cg2d: Sum(rhs),rhsMax =  -3.10173860613123E-03  1.73924055286107E-01
 cg2d: Sum(rhs),rhsMax =  -3.10258276427862E-03  1.73931770913397E-01
 cg2d: Sum(rhs),rhsMax =  -3.10342739890120E-03  1.73939486664634E-01
 cg2d: Sum(rhs),rhsMax =  -3.10427250781595E-03  1.73947202533832E-01
 cg2d: Sum(rhs),rhsMax =  -3.10511808717644E-03  1.73954918515031E-01
 cg2d: Sum(rhs),rhsMax =  -3.10596413331738E-03  1.73962634602267E-01
 cg2d: Sum(rhs),rhsMax =  -3.10681064341323E-03  1.73970350789580E-01
 cg2d: Sum(rhs),rhsMax =  -3.10765761413146E-03  1.73978067071011E-01
 cg2d: Sum(rhs),rhsMax =  -3.10850504256278E-03  1.73985783440613E-01
 cg2d: Sum(rhs),rhsMax =  -3.10935292492889E-03  1.73993499892435E-01
 cg2d: Sum(rhs),rhsMax =  -3.11020125813758E-03  1.74001216420523E-01
 cg2d: Sum(rhs),rhsMax =  -3.11105003907335E-03  1.74008933018951E-01
 cg2d: Sum(rhs),rhsMax =  -3.11189926473741E-03  1.74016649681772E-01
(PID.TID 0000.0001)      cg2d_init_res =   8.50724132141423E-04
(PID.TID 0000.0001)      cg2d_iters(min,last) =      -1      76
(PID.TID 0000.0001)      cg2d_last_res =   9.26673036458687E-08
(PID.TID 0000.0001) // =======================================================
(PID.TID 0000.0001) // Begin MONITOR dynamic field statistics
(PID.TID 0000.0001) // =======================================================
(PID.TID 0000.0001) %MON time_tsnumber                =                  9432
(PID.TID 0000.0001) %MON time_secondsf                =   1.1318400000000E+07
(PID.TID 0000.0001) %MON dynstat_eta_max              =   2.2331674489557E-01
(PID.TID 0000.0001) %MON dynstat_eta_min              =  -8.2360469804037E-02
(PID.TID 0000.0001) %MON dynstat_eta_mean             =   2.7070829760773E-06
(PID.TID 0000.0001) %MON dynstat_eta_sd               =   9.0674194409453E-02
(PID.TID 0000.0001) %MON dynstat_eta_del2             =   2.5847202976395E-05
(PID.TID 0000.0001) %MON dynstat_uvel_max             =   1.2841045458253E-01
(PID.TID 0000.0001) %MON dynstat_uvel_min             =  -8.2698700669237E-02
(PID.TID 0000.0001) %MON dynstat_uvel_mean            =  -4.6941613783247E-08
(PID.TID 0000.0001) %MON dynstat_uvel_sd              =   3.7886944339695E-02
(PID.TID 0000.0001) %MON dynstat_uvel_del2            =   6.4047284173400E-05
(PID.TID 0000.0001) %MON dynstat_vvel_max             =   8.0747316903369E-02
(PID.TID 0000.0001) %MON dynstat_vvel_min             =  -9.6287322162996E-02
(PID.TID 0000.0001) %MON dynstat_vvel_mean            =   1.2845378146120E-07
(PID.TID 0000.0001) %MON dynstat_vvel_sd              =   3.3919123913810E-02
(PID.TID 0000.0001) %MON dynstat_vvel_del2            =   4.0218955109394E-05
(PID.TID 0000.0001) %MON dynstat_wvel_max             =   1.8058843754661E-08
(PID.TID 0000.0001) %MON dynstat_wvel_min             =  -7.9674976148817E-09
(PID.TID 0000.0001) %MON dynstat_wvel_mean            =  -4.9152832717583E-22
(PID.TID 0000.0001) %MON dynstat_wvel_sd              =   6.3731637548411E-09
(PID.TID 0000.0001) %MON dynstat_wvel_del2            =   2.6532988507311E-12
(PID.TID 0000.0001) %MON dynstat_theta_max            =   2.0000000000000E+01
(PID.TID 0000.0001) %MON dynstat_theta_min            =   2.0000000000000E+01
(PID.TID 0000.0001) %MON dynstat_theta_mean           =   2.0000000000000E+01
(PID.TID 0000.0001) %MON dynstat_theta_sd             =   3.8014036363165E-13
(PID.TID 0000.0001) %MON dynstat_theta_del2           =   0.0000000000000E+00
(PID.TID 0000.0001) %MON dynstat_salt_max             =   3.0000000000000E+01
(PID.TID 0000.0001) %MON dynstat_salt_min             =   3.0000000000000E+01
(PID.TID 0000.0001) %MON dynstat_salt_mean            =   2.9999999999999E+01
(PID.TID 0000.0001) %MON dynstat_salt_sd              =   5.5777604757167E-13
(PID.TID 0000.0001) %MON dynstat_salt_del2            =   0.0000000000000E+00
(PID.TID 0000.0001) %MON trAdv_CFL_u_max              =   7.7032599419785E-03
(PID.TID 0000.0001) %MON trAdv_CFL_v_max              =   5.7682065660699E-03
(PID.TID 0000.0001) %MON trAdv_CFL_w_max              =   4.7237805581573E-09
(PID.TID 0000.0001) %MON advcfl_uvel_max              =   7.7046272749518E-03
(PID.TID 0000.0001) %MON advcfl_vvel_max              =   5.7772393297798E-03
(PID.TID 0000.0001) %MON advcfl_wvel_max              =   8.6682450022374E-09
(PID.TID 0000.0001) %MON advcfl_W_hf_max              =   0.0000000000000E+00
(PID.TID 0000.0001) %MON pe_b_mean                    =   8.4292843710393E-06
(PID.TID 0000.0001) %MON ke_max                       =   8.2476108353852E-03
(PID.TID 0000.0001) %MON ke_mean                      =   1.2691879451098E-03
(PID.TID 0000.0001) %MON ke_vol                       =   6.8893493896486E+15
(PID.TID 0000.0001) %MON vort_r_min                   =  -1.0789820077065E-06
(PID.TID 0000.0001) %MON vort_r_max                   =   2.8084774629688E-06
(PID.TID 0000.0001) %MON vort_a_mean                  =   1.0600000000000E-04
(PID.TID 0000.0001) %MON vort_a_sd                    =   3.5519094958964E-06
(PID.TID 0000.0001) %MON vort_p_mean                  =   1.1652272308690E-04
(PID.TID 0000.0001) %MON vort_p_sd                    =   4.1785197068451E-05
(PID.TID 0000.0001) %MON surfExpan_theta_mean         =  -9.8553856433783E-21
(PID.TID 0000.0001) %MON surfExpan_salt_mean          =  -1.4788131213411E-20
(PID.TID 0000.0001) // =======================================================
(PID.TID 0000.0001) // End MONITOR dynamic field statistics
(PID.TID 0000.0001) // =======================================================
 cg2d: Sum(rhs),rhsMax =  -3.11274893160763E-03  1.74024366403059E-01
 cg2d: Sum(rhs),rhsMax =  -3.11359903655003E-03  1.74032083176878E-01
 cg2d: Sum(rhs),rhsMax =  -3.11444957644364E-03  1.74039799997303E-01
 cg2d: Sum(rhs),rhsMax =  -3.11530054835988E-03  1.74047516858418E-01
 cg2d: Sum(rhs),rhsMax =  -3.11615194895883E-03  1.74055233754298E-01
 cg2d: Sum(rhs),rhsMax =  -3.11700377524872E-03  1.74062950679037E-01
 cg2d: Sum(rhs),rhsMax =  -3.11785602378646E-03  1.74070667626722E-01
 cg2d: Sum(rhs),rhsMax =  -3.11870869127838E-03  1.74078384591445E-01
 cg2d: Sum(rhs),rhsMax =  -3.11956177562997E-03  1.74086101567306E-01
 cg2d: Sum(rhs),rhsMax =  -3.12041527308968E-03  1.74093818548414E-01
 cg2d: Sum(rhs),rhsMax =  -3.12126918050789E-03  1.74101535528866E-01
 cg2d: Sum(rhs),rhsMax =  -3.12212349501059E-03  1.74109252502777E-01
 cg2d: Sum(rhs),rhsMax =  -3.12297821328245E-03  1.74116969464263E-01
 cg2d: Sum(rhs),rhsMax =  -3.12383333270397E-03  1.74124686407447E-01
 cg2d: Sum(rhs),rhsMax =  -3.12468884978980E-03  1.74132403326440E-01
 cg2d: Sum(rhs),rhsMax =  -3.12554476195432E-03  1.74140120215383E-01
 cg2d: Sum(rhs),rhsMax =  -3.12640106616136E-03  1.74147837068401E-01
 cg2d: Sum(rhs),rhsMax =  -3.12725775897593E-03  1.74155553879627E-01
 cg2d: Sum(rhs),rhsMax =  -3.12811483770067E-03  1.74163270643208E-01
 cg2d: Sum(rhs),rhsMax =  -3.12897229907512E-03  1.74170987353286E-01
 cg2d: Sum(rhs),rhsMax =  -3.12983014049270E-03  1.74178704004006E-01
 cg2d: Sum(rhs),rhsMax =  -3.13068835903955E-03  1.74186420589524E-01
 cg2d: Sum(rhs),rhsMax =  -3.13154695137237E-03  1.74194137104001E-01
 cg2d: Sum(rhs),rhsMax =  -3.13240591483590E-03  1.74201853541594E-01
 cg2d: Sum(rhs),rhsMax =  -3.13326524666105E-03  1.74209569896473E-01
 cg2d: Sum(rhs),rhsMax =  -3.13412494392355E-03  1.74217286162801E-01
 cg2d: Sum(rhs),rhsMax =  -3.13498500293439E-03  1.74225002334757E-01
 cg2d: Sum(rhs),rhsMax =  -3.13584542213300E-03  1.74232718406526E-01
 cg2d: Sum(rhs),rhsMax =  -3.13670619719989E-03  1.74240434372284E-01
 cg2d: Sum(rhs),rhsMax =  -3.13756732644600E-03  1.74248150226223E-01
 cg2d: Sum(rhs),rhsMax =  -3.13842880641218E-03  1.74255865962534E-01
 cg2d: Sum(rhs),rhsMax =  -3.13929063411756E-03  1.74263581575418E-01
 cg2d: Sum(rhs),rhsMax =  -3.14015280737051E-03  1.74271297059071E-01
 cg2d: Sum(rhs),rhsMax =  -3.14101532261533E-03  1.74279012407705E-01
 cg2d: Sum(rhs),rhsMax =  -3.14187817735171E-03  1.74286727615528E-01
 cg2d: Sum(rhs),rhsMax =  -3.14274136906839E-03  1.74294442676755E-01
 cg2d: Sum(rhs),rhsMax =  -3.14360489421565E-03  1.74302157585607E-01
 cg2d: Sum(rhs),rhsMax =  -3.14446875094420E-03  1.74309872336309E-01
 cg2d: Sum(rhs),rhsMax =  -3.14533293586638E-03  1.74317586923088E-01
 cg2d: Sum(rhs),rhsMax =  -3.14619744614321E-03  1.74325301340185E-01
 cg2d: Sum(rhs),rhsMax =  -3.14706227955014E-03  1.74333015581830E-01
 cg2d: Sum(rhs),rhsMax =  -3.14792743268080E-03  1.74340729642273E-01
 cg2d: Sum(rhs),rhsMax =  -3.14879290367206E-03  1.74348443515756E-01
 cg2d: Sum(rhs),rhsMax =  -3.14965868831547E-03  1.74356157196538E-01
 cg2d: Sum(rhs),rhsMax =  -3.15052478517835E-03  1.74363870678874E-01
 cg2d: Sum(rhs),rhsMax =  -3.15139119108828E-03  1.74371583957028E-01
 cg2d: Sum(rhs),rhsMax =  -3.15225790345646E-03  1.74379297025263E-01
 cg2d: Sum(rhs),rhsMax =  -3.15312491944725E-03  1.74387009877856E-01
 cg2d: Sum(rhs),rhsMax =  -3.15399223644634E-03  1.74394722509082E-01
 cg2d: Sum(rhs),rhsMax =  -3.15485985214394E-03  1.74402434913222E-01
 cg2d: Sum(rhs),rhsMax =  -3.15572776358133E-03  1.74410147084567E-01
 cg2d: Sum(rhs),rhsMax =  -3.15659596772182E-03  1.74417859017401E-01
 cg2d: Sum(rhs),rhsMax =  -3.15746446232130E-03  1.74425570706022E-01
 cg2d: Sum(rhs),rhsMax =  -3.15833324513045E-03  1.74433282144738E-01
 cg2d: Sum(rhs),rhsMax =  -3.15920231293600E-03  1.74440993327851E-01
 cg2d: Sum(rhs),rhsMax =  -3.16007166317357E-03  1.74448704249672E-01
 cg2d: Sum(rhs),rhsMax =  -3.16094129338746E-03  1.74456414904517E-01
 cg2d: Sum(rhs),rhsMax =  -3.16181120111064E-03  1.74464125286710E-01
 cg2d: Sum(rhs),rhsMax =  -3.16268138348358E-03  1.74471835390576E-01
 cg2d: Sum(rhs),rhsMax =  -3.16355183798903E-03  1.74479545210444E-01
 cg2d: Sum(rhs),rhsMax =  -3.16442256213821E-03  1.74487254740653E-01
 cg2d: Sum(rhs),rhsMax =  -3.16529355340100E-03  1.74494963975543E-01
 cg2d: Sum(rhs),rhsMax =  -3.16616480904752E-03  1.74502672909462E-01
 cg2d: Sum(rhs),rhsMax =  -3.16703632691704E-03  1.74510381536763E-01
 cg2d: Sum(rhs),rhsMax =  -3.16790810411637E-03  1.74518089851801E-01
 cg2d: Sum(rhs),rhsMax =  -3.16878013831397E-03  1.74525797848937E-01
 cg2d: Sum(rhs),rhsMax =  -3.16965242699511E-03  1.74533505522539E-01
 cg2d: Sum(rhs),rhsMax =  -3.17052496745789E-03  1.74541212866981E-01
 cg2d: Sum(rhs),rhsMax =  -3.17139775745496E-03  1.74548919876640E-01
 cg2d: Sum(rhs),rhsMax =  -3.17227079439189E-03  1.74556626545901E-01
 cg2d: Sum(rhs),rhsMax =  -3.17314407592585E-03  1.74564332869145E-01
 cg2d: Sum(rhs),rhsMax =  -3.17401759918761E-03  1.74572038840772E-01
(PID.TID 0000.0001)      cg2d_init_res =   8.41258616163495E-04
(PID.TID 0000.0001)      cg2d_iters(min,last) =      -1      76
(PID.TID 0000.0001)      cg2d_last_res =   9.38437604622514E-08
(PID.TID 0000.0001) // =======================================================
(PID.TID 0000.0001) // Begin MONITOR dynamic field statistics
(PID.TID 0000.0001) // =======================================================
(PID.TID 0000.0001) %MON time_tsnumber                =                  9504
(PID.TID 0000.0001) %MON time_secondsf                =   1.1404800000000E+07
(PID.TID 0000.0001) %MON dynstat_eta_max              =   2.2472293462911E-01
(PID.TID 0000.0001) %MON dynstat_eta_min              =  -8.2797089687677E-02
(PID.TID 0000.0001) %MON dynstat_eta_mean             =   2.7699385629740E-06
(PID.TID 0000.0001) %MON dynstat_eta_sd               =   9.1201518191881E-02
(PID.TID 0000.0001) %MON dynstat_eta_del2             =   2.5923691960255E-05
(PID.TID 0000.0001) %MON dynstat_uvel_max             =   1.2884344586150E-01
(PID.TID 0000.0001) %MON dynstat_uvel_min             =  -8.3316569104950E-02
(PID.TID 0000.0001) %MON dynstat_uvel_mean            =  -4.8028419735922E-08
(PID.TID 0000.0001) %MON dynstat_uvel_sd              =   3.8085304852478E-02
(PID.TID 0000.0001) %MON dynstat_uvel_del2            =   6.4116009734697E-05
(PID.TID 0000.0001) %MON dynstat_vvel_max             =   8.0908384246815E-02
(PID.TID 0000.0001) %MON dynstat_vvel_min             =  -9.6974434858693E-02
(PID.TID 0000.0001) %MON dynstat_vvel_mean            =   1.2691324252854E-07
(PID.TID 0000.0001) %MON dynstat_vvel_sd              =   3.4114646557882E-02
(PID.TID 0000.0001) %MON dynstat_vvel_del2            =   4.0276814338713E-05
(PID.TID 0000.0001) %MON dynstat_wvel_max             =   1.8056326440201E-08
(PID.TID 0000.0001) %MON dynstat_wvel_min             =  -7.7393450115778E-09
(PID.TID 0000.0001) %MON dynstat_wvel_mean            =  -4.3523414205993E-22
(PID.TID 0000.0001) %MON dynstat_wvel_sd              =   6.3398862953760E-09
(PID.TID 0000.0001) %MON dynstat_wvel_del2            =   2.6235053229045E-12
(PID.TID 0000.0001) %MON dynstat_theta_max            =   2.0000000000000E+01
(PID.TID 0000.0001) %MON dynstat_theta_min            =   2.0000000000000E+01
(PID.TID 0000.0001) %MON dynstat_theta_mean           =   2.0000000000000E+01
(PID.TID 0000.0001) %MON dynstat_theta_sd             =   3.8014036363165E-13
(PID.TID 0000.0001) %MON dynstat_theta_del2           =   0.0000000000000E+00
(PID.TID 0000.0001) %MON dynstat_salt_max             =   3.0000000000000E+01
(PID.TID 0000.0001) %MON dynstat_salt_min             =   3.0000000000000E+01
(PID.TID 0000.0001) %MON dynstat_salt_mean            =   2.9999999999999E+01
(PID.TID 0000.0001) %MON dynstat_salt_sd              =   5.5777604757167E-13
(PID.TID 0000.0001) %MON dynstat_salt_del2            =   0.0000000000000E+00
(PID.TID 0000.0001) %MON trAdv_CFL_u_max              =   7.7292242929637E-03
(PID.TID 0000.0001) %MON trAdv_CFL_v_max              =   5.8093849189705E-03
(PID.TID 0000.0001) %MON trAdv_CFL_w_max              =   4.7204761629818E-09
(PID.TID 0000.0001) %MON advcfl_uvel_max              =   7.7306067516900E-03
(PID.TID 0000.0001) %MON advcfl_vvel_max              =   5.8184660915216E-03
(PID.TID 0000.0001) %MON advcfl_wvel_max              =   8.6670366912964E-09
(PID.TID 0000.0001) %MON advcfl_W_hf_max              =   0.0000000000000E+00
(PID.TID 0000.0001) %MON pe_b_mean                    =   8.5276119535132E-06
(PID.TID 0000.0001) %MON ke_max                       =   8.3032909038488E-03
(PID.TID 0000.0001) %MON ke_mean                      =   1.2831131023601E-03
(PID.TID 0000.0001) %MON ke_vol                       =   6.8893493896486E+15
(PID.TID 0000.0001) %MON vort_r_min                   =  -1.0719633341399E-06
(PID.TID 0000.0001) %MON vort_r_max                   =   2.8173933673549E-06
(PID.TID 0000.0001) %MON vort_a_mean                  =   1.0600000000000E-04
(PID.TID 0000.0001) %MON vort_a_sd                    =   3.5521133323165E-06
(PID.TID 0000.0001) %MON vort_p_mean                  =   1.1652272308690E-04
(PID.TID 0000.0001) %MON vort_p_sd                    =   4.1785346857949E-05
(PID.TID 0000.0001) %MON surfExpan_theta_mean         =  -8.6705161569019E-21
(PID.TID 0000.0001) %MON surfExpan_salt_mean          =  -1.3006405828896E-20
(PID.TID 0000.0001) // =======================================================
(PID.TID 0000.0001) // End MONITOR dynamic field statistics
(PID.TID 0000.0001) // =======================================================
 cg2d: Sum(rhs),rhsMax =  -3.17489136230188E-03  1.74579744455181E-01
 cg2d: Sum(rhs),rhsMax =  -3.17576536258619E-03  1.74587449706773E-01
 cg2d: Sum(rhs),rhsMax =  -3.17663959724776E-03  1.74595154589954E-01
 cg2d: Sum(rhs),rhsMax =  -3.17751406399053E-03  1.74602859099143E-01
 cg2d: Sum(rhs),rhsMax =  -3.17838876051696E-03  1.74610563228764E-01
 cg2d: Sum(rhs),rhsMax =  -3.17926368434568E-03  1.74618266973234E-01
 cg2d: Sum(rhs),rhsMax =  -3.18013883323461E-03  1.74625970326991E-01
 cg2d: Sum(rhs),rhsMax =  -3.18101420487870E-03  1.74633673284466E-01
 cg2d: Sum(rhs),rhsMax =  -3.18188979654707E-03  1.74641375840103E-01
 cg2d: Sum(rhs),rhsMax =  -3.18276560589159E-03  1.74649077988346E-01
 cg2d: Sum(rhs),rhsMax =  -3.18364163103003E-03  1.74656779723649E-01
 cg2d: Sum(rhs),rhsMax =  -3.18451786917031E-03  1.74664481040475E-01
 cg2d: Sum(rhs),rhsMax =  -3.18539431772395E-03  1.74672181933281E-01
 cg2d: Sum(rhs),rhsMax =  -3.18627097505558E-03  1.74679882396536E-01
 cg2d: Sum(rhs),rhsMax =  -3.18714783800846E-03  1.74687582424723E-01
 cg2d: Sum(rhs),rhsMax =  -3.18802490505465E-03  1.74695282012308E-01
 cg2d: Sum(rhs),rhsMax =  -3.18890217317128E-03  1.74702981153787E-01
 cg2d: Sum(rhs),rhsMax =  -3.18977964069447E-03  1.74710679843649E-01
 cg2d: Sum(rhs),rhsMax =  -3.19065730461573E-03  1.74718378076391E-01
 cg2d: Sum(rhs),rhsMax =  -3.19153516309370E-03  1.74726075846516E-01
 cg2d: Sum(rhs),rhsMax =  -3.19241321374224E-03  1.74733773148529E-01
 cg2d: Sum(rhs),rhsMax =  -3.19329145455087E-03  1.74741469976945E-01
 cg2d: Sum(rhs),rhsMax =  -3.19416988262791E-03  1.74749166326283E-01
 cg2d: Sum(rhs),rhsMax =  -3.19504849613278E-03  1.74756862191070E-01
 cg2d: Sum(rhs),rhsMax =  -3.19592729232136E-03  1.74764557565839E-01
 cg2d: Sum(rhs),rhsMax =  -3.19680626982882E-03  1.74772252445118E-01
 cg2d: Sum(rhs),rhsMax =  -3.19768542576316E-03  1.74779946823452E-01
 cg2d: Sum(rhs),rhsMax =  -3.19856475807857E-03  1.74787640695402E-01
 cg2d: Sum(rhs),rhsMax =  -3.19944426437543E-03  1.74795334055504E-01
 cg2d: Sum(rhs),rhsMax =  -3.20032394304211E-03  1.74803026898325E-01
 cg2d: Sum(rhs),rhsMax =  -3.20120379093807E-03  1.74810719218428E-01
 cg2d: Sum(rhs),rhsMax =  -3.20208380606853E-03  1.74818411010387E-01
 cg2d: Sum(rhs),rhsMax =  -3.20296398701319E-03  1.74826102268782E-01
 cg2d: Sum(rhs),rhsMax =  -3.20384433040952E-03  1.74833792988188E-01
 cg2d: Sum(rhs),rhsMax =  -3.20472483478770E-03  1.74841483163195E-01
 cg2d: Sum(rhs),rhsMax =  -3.20560549832623E-03  1.74849172788406E-01
 cg2d: Sum(rhs),rhsMax =  -3.20648631816324E-03  1.74856861858414E-01
 cg2d: Sum(rhs),rhsMax =  -3.20736729208879E-03  1.74864550367828E-01
 cg2d: Sum(rhs),rhsMax =  -3.20824841838101E-03  1.74872238311259E-01
 cg2d: Sum(rhs),rhsMax =  -3.20912969480445E-03  1.74879925683324E-01
 cg2d: Sum(rhs),rhsMax =  -3.21001111911064E-03  1.74887612478651E-01
 cg2d: Sum(rhs),rhsMax =  -3.21089268925398E-03  1.74895298691868E-01
 cg2d: Sum(rhs),rhsMax =  -3.21177440302623E-03  1.74902984317613E-01
 cg2d: Sum(rhs),rhsMax =  -3.21265625857223E-03  1.74910669350525E-01
 cg2d: Sum(rhs),rhsMax =  -3.21353825328898E-03  1.74918353785256E-01
 cg2d: Sum(rhs),rhsMax =  -3.21442038519068E-03  1.74926037616459E-01
 cg2d: Sum(rhs),rhsMax =  -3.21530265258092E-03  1.74933720838793E-01
 cg2d: Sum(rhs),rhsMax =  -3.21618505297258E-03  1.74941403446926E-01
 cg2d: Sum(rhs),rhsMax =  -3.21706758432001E-03  1.74949085435530E-01
 cg2d: Sum(rhs),rhsMax =  -3.21795024458137E-03  1.74956766799285E-01
 cg2d: Sum(rhs),rhsMax =  -3.21883303176903E-03  1.74964447532875E-01
 cg2d: Sum(rhs),rhsMax =  -3.21971594384415E-03  1.74972127630995E-01
 cg2d: Sum(rhs),rhsMax =  -3.22059897842650E-03  1.74979807088335E-01
 cg2d: Sum(rhs),rhsMax =  -3.22148213374882E-03  1.74987485899602E-01
 cg2d: Sum(rhs),rhsMax =  -3.22236540753887E-03  1.74995164059507E-01
 cg2d: Sum(rhs),rhsMax =  -3.22324879810211E-03  1.75002841562764E-01
 cg2d: Sum(rhs),rhsMax =  -3.22413230303118E-03  1.75010518404091E-01
 cg2d: Sum(rhs),rhsMax =  -3.22501592056384E-03  1.75018194578226E-01
 cg2d: Sum(rhs),rhsMax =  -3.22589964853105E-03  1.75025870079894E-01
 cg2d: Sum(rhs),rhsMax =  -3.22678348466189E-03  1.75033544903843E-01
 cg2d: Sum(rhs),rhsMax =  -3.22766742720747E-03  1.75041219044816E-01
 cg2d: Sum(rhs),rhsMax =  -3.22855147417245E-03  1.75048892497569E-01
 cg2d: Sum(rhs),rhsMax =  -3.22943562380887E-03  1.75056565256855E-01
 cg2d: Sum(rhs),rhsMax =  -3.23031987383698E-03  1.75064237317452E-01
 cg2d: Sum(rhs),rhsMax =  -3.23120422205596E-03  1.75071908674122E-01
 cg2d: Sum(rhs),rhsMax =  -3.23208866658629E-03  1.75079579321642E-01
 cg2d: Sum(rhs),rhsMax =  -3.23297320554110E-03  1.75087249254809E-01
 cg2d: Sum(rhs),rhsMax =  -3.23385783711155E-03  1.75094918468408E-01
 cg2d: Sum(rhs),rhsMax =  -3.23474255871471E-03  1.75102586957239E-01
 cg2d: Sum(rhs),rhsMax =  -3.23562736980377E-03  1.75110254716100E-01
 cg2d: Sum(rhs),rhsMax =  -3.23651226674446E-03  1.75117921739809E-01
 cg2d: Sum(rhs),rhsMax =  -3.23739724852064E-03  1.75125588023174E-01
(PID.TID 0000.0001)      cg2d_init_res =   8.31875544570283E-04
(PID.TID 0000.0001)      cg2d_iters(min,last) =      -1      76
(PID.TID 0000.0001)      cg2d_last_res =   9.49563041010617E-08
(PID.TID 0000.0001) // =======================================================
(PID.TID 0000.0001) // Begin MONITOR dynamic field statistics
(PID.TID 0000.0001) // =======================================================
(PID.TID 0000.0001) %MON time_tsnumber                =                  9576
(PID.TID 0000.0001) %MON time_secondsf                =   1.1491200000000E+07
(PID.TID 0000.0001) %MON dynstat_eta_max              =   2.2612228478453E-01
(PID.TID 0000.0001) %MON dynstat_eta_min              =  -8.3227319718763E-02
(PID.TID 0000.0001) %MON dynstat_eta_mean             =   2.8342015907679E-06
(PID.TID 0000.0001) %MON dynstat_eta_sd               =   9.1726053677564E-02
(PID.TID 0000.0001) %MON dynstat_eta_del2             =   2.6002504003150E-05
(PID.TID 0000.0001) %MON dynstat_uvel_max             =   1.2928987936729E-01
(PID.TID 0000.0001) %MON dynstat_uvel_min             =  -8.3919457059180E-02
(PID.TID 0000.0001) %MON dynstat_uvel_mean            =  -4.9736686571794E-08
(PID.TID 0000.0001) %MON dynstat_uvel_sd              =   3.8281721057897E-02
(PID.TID 0000.0001) %MON dynstat_uvel_del2            =   6.4186723962421E-05
(PID.TID 0000.0001) %MON dynstat_vvel_max             =   8.1023567367036E-02
(PID.TID 0000.0001) %MON dynstat_vvel_min             =  -9.7646319217129E-02
(PID.TID 0000.0001) %MON dynstat_vvel_mean            =   1.2567990143072E-07
(PID.TID 0000.0001) %MON dynstat_vvel_sd              =   3.4311421322076E-02
(PID.TID 0000.0001) %MON dynstat_vvel_del2            =   4.0336219190526E-05
(PID.TID 0000.0001) %MON dynstat_wvel_max             =   1.8049452706146E-08
(PID.TID 0000.0001) %MON dynstat_wvel_min             =  -7.4899772827484E-09
(PID.TID 0000.0001) %MON dynstat_wvel_mean            =  -1.2448560179716E-20
(PID.TID 0000.0001) %MON dynstat_wvel_sd              =   6.3076163376396E-09
(PID.TID 0000.0001) %MON dynstat_wvel_del2            =   2.5948298046228E-12
(PID.TID 0000.0001) %MON dynstat_theta_max            =   2.0000000000000E+01
(PID.TID 0000.0001) %MON dynstat_theta_min            =   2.0000000000000E+01
(PID.TID 0000.0001) %MON dynstat_theta_mean           =   2.0000000000000E+01
(PID.TID 0000.0001) %MON dynstat_theta_sd             =   3.8014036363165E-13
(PID.TID 0000.0001) %MON dynstat_theta_del2           =   0.0000000000000E+00
(PID.TID 0000.0001) %MON dynstat_salt_max             =   3.0000000000000E+01
(PID.TID 0000.0001) %MON dynstat_salt_min             =   3.0000000000000E+01
(PID.TID 0000.0001) %MON dynstat_salt_mean            =   2.9999999999999E+01
(PID.TID 0000.0001) %MON dynstat_salt_sd              =   5.5777604757167E-13
(PID.TID 0000.0001) %MON dynstat_salt_del2            =   0.0000000000000E+00
(PID.TID 0000.0001) %MON trAdv_CFL_u_max              =   7.7559961097444E-03
(PID.TID 0000.0001) %MON trAdv_CFL_v_max              =   5.8496523564853E-03
(PID.TID 0000.0001) %MON trAdv_CFL_w_max              =   4.7186946826889E-09
(PID.TID 0000.0001) %MON advcfl_uvel_max              =   7.7573927620374E-03
(PID.TID 0000.0001) %MON advcfl_vvel_max              =   5.8587791530277E-03
(PID.TID 0000.0001) %MON advcfl_wvel_max              =   8.6637372989499E-09
(PID.TID 0000.0001) %MON advcfl_W_hf_max              =   0.0000000000000E+00
(PID.TID 0000.0001) %MON pe_b_mean                    =   8.6259852758802E-06
(PID.TID 0000.0001) %MON ke_max                       =   8.3609629135314E-03
(PID.TID 0000.0001) %MON ke_mean                      =   1.2970835157356E-03
(PID.TID 0000.0001) %MON ke_vol                       =   6.8893493896486E+15
(PID.TID 0000.0001) %MON vort_r_min                   =  -1.0647913696506E-06
(PID.TID 0000.0001) %MON vort_r_max                   =   2.8265144517816E-06
(PID.TID 0000.0001) %MON vort_a_mean                  =   1.0600000000000E-04
(PID.TID 0000.0001) %MON vort_a_sd                    =   3.5523220045616E-06
(PID.TID 0000.0001) %MON vort_p_mean                  =   1.1652272308690E-04
(PID.TID 0000.0001) %MON vort_p_sd                    =   4.1785489211633E-05
(PID.TID 0000.0001) %MON surfExpan_theta_mean         =  -2.4896912679632E-19
(PID.TID 0000.0001) %MON surfExpan_salt_mean          =  -3.7345621410149E-19
(PID.TID 0000.0001) // =======================================================
(PID.TID 0000.0001) // End MONITOR dynamic field statistics
(PID.TID 0000.0001) // =======================================================
 cg2d: Sum(rhs),rhsMax =  -3.23828231258219E-03  1.75133253561036E-01
 cg2d: Sum(rhs),rhsMax =  -3.23916745755441E-03  1.75140918348205E-01
 cg2d: Sum(rhs),rhsMax =  -3.24005268132478E-03  1.75148582379532E-01
 cg2d: Sum(rhs),rhsMax =  -3.24093798200516E-03  1.75156245649857E-01
 cg2d: Sum(rhs),rhsMax =  -3.24182335742854E-03  1.75163908154027E-01
 cg2d: Sum(rhs),rhsMax =  -3.24270880592657E-03  1.75171569886901E-01
 cg2d: Sum(rhs),rhsMax =  -3.24359432523862E-03  1.75179230843337E-01
 cg2d: Sum(rhs),rhsMax =  -3.24447991406258E-03  1.75186891018210E-01
 cg2d: Sum(rhs),rhsMax =  -3.24536556962380E-03  1.75194550406393E-01
 cg2d: Sum(rhs),rhsMax =  -3.24625129088412E-03  1.75202209002771E-01
 cg2d: Sum(rhs),rhsMax =  -3.24713707539617E-03  1.75209866802232E-01
 cg2d: Sum(rhs),rhsMax =  -3.24802292100770E-03  1.75217523799673E-01
 cg2d: Sum(rhs),rhsMax =  -3.24890882665493E-03  1.75225179989992E-01
 cg2d: Sum(rhs),rhsMax =  -3.24979479004210E-03  1.75232835368106E-01
 cg2d: Sum(rhs),rhsMax =  -3.25068080888515E-03  1.75240489928927E-01
 cg2d: Sum(rhs),rhsMax =  -3.25156688167034E-03  1.75248143667376E-01
 cg2d: Sum(rhs),rhsMax =  -3.25245300693797E-03  1.75255796578383E-01
 cg2d: Sum(rhs),rhsMax =  -3.25333918201201E-03  1.75263448656889E-01
 cg2d: Sum(rhs),rhsMax =  -3.25422540549514E-03  1.75271099897829E-01
 cg2d: Sum(rhs),rhsMax =  -3.25511167522822E-03  1.75278750296156E-01
 cg2d: Sum(rhs),rhsMax =  -3.25599798931976E-03  1.75286399846829E-01
 cg2d: Sum(rhs),rhsMax =  -3.25688434660876E-03  1.75294048544807E-01
 cg2d: Sum(rhs),rhsMax =  -3.25777074407950E-03  1.75301696385058E-01
 cg2d: Sum(rhs),rhsMax =  -3.25865718105880E-03  1.75309343362569E-01
 cg2d: Sum(rhs),rhsMax =  -3.25954365508697E-03  1.75316989472313E-01
 cg2d: Sum(rhs),rhsMax =  -3.26043016432382E-03  1.75324634709285E-01
 cg2d: Sum(rhs),rhsMax =  -3.26131670678060E-03  1.75332279068480E-01
 cg2d: Sum(rhs),rhsMax =  -3.26220328102140E-03  1.75339922544903E-01
 cg2d: Sum(rhs),rhsMax =  -3.26308988553268E-03  1.75347565133567E-01
 cg2d: Sum(rhs),rhsMax =  -3.26397651761271E-03  1.75355206829486E-01
 cg2d: Sum(rhs),rhsMax =  -3.26486317607435E-03  1.75362847627687E-01
 cg2d: Sum(rhs),rhsMax =  -3.26574985866025E-03  1.75370487523200E-01
 cg2d: Sum(rhs),rhsMax =  -3.26663656350649E-03  1.75378126511069E-01
 cg2d: Sum(rhs),rhsMax =  -3.26752328936351E-03  1.75385764586333E-01
 cg2d: Sum(rhs),rhsMax =  -3.26841003385744E-03  1.75393401744046E-01
 cg2d: Sum(rhs),rhsMax =  -3.26929679554809E-03  1.75401037979266E-01
 cg2d: Sum(rhs),rhsMax =  -3.27018357227109E-03  1.75408673287065E-01
 cg2d: Sum(rhs),rhsMax =  -3.27107036200176E-03  1.75416307662514E-01
 cg2d: Sum(rhs),rhsMax =  -3.27195716376969E-03  1.75423941100687E-01
 cg2d: Sum(rhs),rhsMax =  -3.27284397528249E-03  1.75431573596682E-01
 cg2d: Sum(rhs),rhsMax =  -3.27373079463643E-03  1.75439205145585E-01
 cg2d: Sum(rhs),rhsMax =  -3.27461762017262E-03  1.75446835742504E-01
 cg2d: Sum(rhs),rhsMax =  -3.27550445026849E-03  1.75454465382539E-01
 cg2d: Sum(rhs),rhsMax =  -3.27639128283953E-03  1.75462094060814E-01
 cg2d: Sum(rhs),rhsMax =  -3.27727811620793E-03  1.75469721772447E-01
 cg2d: Sum(rhs),rhsMax =  -3.27816494854373E-03  1.75477348512573E-01
 cg2d: Sum(rhs),rhsMax =  -3.27905177806016E-03  1.75484974276324E-01
 cg2d: Sum(rhs),rhsMax =  -3.27993860320379E-03  1.75492599058842E-01
 cg2d: Sum(rhs),rhsMax =  -3.28082542162832E-03  1.75500222855288E-01
 cg2d: Sum(rhs),rhsMax =  -3.28171223185212E-03  1.75507845660810E-01
 cg2d: Sum(rhs),rhsMax =  -3.28259903268534E-03  1.75515467470581E-01
 cg2d: Sum(rhs),rhsMax =  -3.28348582142195E-03  1.75523088279770E-01
 cg2d: Sum(rhs),rhsMax =  -3.28437259667890E-03  1.75530708083554E-01
 cg2d: Sum(rhs),rhsMax =  -3.28525935671405E-03  1.75538326877124E-01
 cg2d: Sum(rhs),rhsMax =  -3.28614609998942E-03  1.75545944655677E-01
 cg2d: Sum(rhs),rhsMax =  -3.28703282430198E-03  1.75553561414410E-01
 cg2d: Sum(rhs),rhsMax =  -3.28791952785924E-03  1.75561177148532E-01
 cg2d: Sum(rhs),rhsMax =  -3.28880620912670E-03  1.75568791853263E-01
 cg2d: Sum(rhs),rhsMax =  -3.28969286634879E-03  1.75576405523824E-01
 cg2d: Sum(rhs),rhsMax =  -3.29057949782517E-03  1.75584018155443E-01
 cg2d: Sum(rhs),rhsMax =  -3.29146610128493E-03  1.75591629743362E-01
 cg2d: Sum(rhs),rhsMax =  -3.29235267563767E-03  1.75599240282824E-01
 cg2d: Sum(rhs),rhsMax =  -3.29323921865186E-03  1.75606849769084E-01
 cg2d: Sum(rhs),rhsMax =  -3.29412572864987E-03  1.75614458197395E-01
 cg2d: Sum(rhs),rhsMax =  -3.29501220446538E-03  1.75622065563032E-01
 cg2d: Sum(rhs),rhsMax =  -3.29589864296540E-03  1.75629671861265E-01
 cg2d: Sum(rhs),rhsMax =  -3.29678504396805E-03  1.75637277087381E-01
 cg2d: Sum(rhs),rhsMax =  -3.29767140466575E-03  1.75644881236666E-01
 cg2d: Sum(rhs),rhsMax =  -3.29855772369179E-03  1.75652484304409E-01
 cg2d: Sum(rhs),rhsMax =  -3.29944399904302E-03  1.75660086285932E-01
 cg2d: Sum(rhs),rhsMax =  -3.30033022880707E-03  1.75667687176529E-01
 cg2d: Sum(rhs),rhsMax =  -3.30121641182120E-03  1.75675286971528E-01
(PID.TID 0000.0001)      cg2d_init_res =   8.22545706287279E-04
(PID.TID 0000.0001)      cg2d_iters(min,last) =      -1      76
(PID.TID 0000.0001)      cg2d_last_res =   9.59077224048369E-08
(PID.TID 0000.0001) // =======================================================
(PID.TID 0000.0001) // Begin MONITOR dynamic field statistics
(PID.TID 0000.0001) // =======================================================
(PID.TID 0000.0001) %MON time_tsnumber                =                  9648
(PID.TID 0000.0001) %MON time_secondsf                =   1.1577600000000E+07
(PID.TID 0000.0001) %MON dynstat_eta_max              =   2.2751495368137E-01
(PID.TID 0000.0001) %MON dynstat_eta_min              =  -8.3660070530222E-02
(PID.TID 0000.0001) %MON dynstat_eta_mean             =   2.8991282385140E-06
(PID.TID 0000.0001) %MON dynstat_eta_sd               =   9.2247919469172E-02
(PID.TID 0000.0001) %MON dynstat_eta_del2             =   2.6083650627199E-05
(PID.TID 0000.0001) %MON dynstat_uvel_max             =   1.2974840429996E-01
(PID.TID 0000.0001) %MON dynstat_uvel_min             =  -8.4503496391827E-02
(PID.TID 0000.0001) %MON dynstat_uvel_mean            =  -5.2044765403225E-08
(PID.TID 0000.0001) %MON dynstat_uvel_sd              =   3.8476074776570E-02
(PID.TID 0000.0001) %MON dynstat_uvel_del2            =   6.4259825196085E-05
(PID.TID 0000.0001) %MON dynstat_vvel_max             =   8.1094321070972E-02
(PID.TID 0000.0001) %MON dynstat_vvel_min             =  -9.8301322162509E-02
(PID.TID 0000.0001) %MON dynstat_vvel_mean            =   1.2491148673652E-07
(PID.TID 0000.0001) %MON dynstat_vvel_sd              =   3.4509425106933E-02
(PID.TID 0000.0001) %MON dynstat_vvel_del2            =   4.0396354767766E-05
(PID.TID 0000.0001) %MON dynstat_wvel_max             =   1.8038298269348E-08
(PID.TID 0000.0001) %MON dynstat_wvel_min             =  -7.2418343251775E-09
(PID.TID 0000.0001) %MON dynstat_wvel_mean            =  -2.5887331705437E-21
(PID.TID 0000.0001) %MON dynstat_wvel_sd              =   6.2764458712284E-09
(PID.TID 0000.0001) %MON dynstat_wvel_del2            =   2.5673194180244E-12
(PID.TID 0000.0001) %MON dynstat_theta_max            =   2.0000000000000E+01
(PID.TID 0000.0001) %MON dynstat_theta_min            =   2.0000000000000E+01
(PID.TID 0000.0001) %MON dynstat_theta_mean           =   2.0000000000000E+01
(PID.TID 0000.0001) %MON dynstat_theta_sd             =   3.8014036363165E-13
(PID.TID 0000.0001) %MON dynstat_theta_del2           =   0.0000000000000E+00
(PID.TID 0000.0001) %MON dynstat_salt_max             =   3.0000000000000E+01
(PID.TID 0000.0001) %MON dynstat_salt_min             =   3.0000000000000E+01
(PID.TID 0000.0001) %MON dynstat_salt_mean            =   2.9999999999999E+01
(PID.TID 0000.0001) %MON dynstat_salt_sd              =   5.5777604757167E-13
(PID.TID 0000.0001) %MON dynstat_salt_del2            =   0.0000000000000E+00
(PID.TID 0000.0001) %MON trAdv_CFL_u_max              =   7.7834945219428E-03
(PID.TID 0000.0001) %MON trAdv_CFL_v_max              =   5.8889096898539E-03
(PID.TID 0000.0001) %MON trAdv_CFL_w_max              =   4.7157941924262E-09
(PID.TID 0000.0001) %MON advcfl_uvel_max              =   7.7849042579978E-03
(PID.TID 0000.0001) %MON advcfl_vvel_max              =   5.8980793297506E-03
(PID.TID 0000.0001) %MON advcfl_wvel_max              =   8.6583831692871E-09
(PID.TID 0000.0001) %MON advcfl_W_hf_max              =   0.0000000000000E+00
(PID.TID 0000.0001) %MON pe_b_mean                    =   8.7244177751914E-06
(PID.TID 0000.0001) %MON ke_max                       =   8.4204804074801E-03
(PID.TID 0000.0001) %MON ke_mean                      =   1.3110935402261E-03
(PID.TID 0000.0001) %MON ke_vol                       =   6.8893493896486E+15
(PID.TID 0000.0001) %MON vort_r_min                   =  -1.0575479709717E-06
(PID.TID 0000.0001) %MON vort_r_max                   =   2.8358092893654E-06
(PID.TID 0000.0001) %MON vort_a_mean                  =   1.0600000000000E-04
(PID.TID 0000.0001) %MON vort_a_sd                    =   3.5525352583485E-06
(PID.TID 0000.0001) %MON vort_p_mean                  =   1.1652272308690E-04
(PID.TID 0000.0001) %MON vort_p_sd                    =   4.1785624211460E-05
(PID.TID 0000.0001) %MON surfExpan_theta_mean         =  -5.1733200439546E-20
(PID.TID 0000.0001) %MON surfExpan_salt_mean          =  -7.7602640363100E-20
(PID.TID 0000.0001) // =======================================================
(PID.TID 0000.0001) // End MONITOR dynamic field statistics
(PID.TID 0000.0001) // =======================================================
 cg2d: Sum(rhs),rhsMax =  -3.30210254599278E-03  1.75682885666257E-01
 cg2d: Sum(rhs),rhsMax =  -3.30298862961922E-03  1.75690483256042E-01
 cg2d: Sum(rhs),rhsMax =  -3.30387466092862E-03  1.75698079736233E-01
 cg2d: Sum(rhs),rhsMax =  -3.30476063811002E-03  1.75705675102170E-01
 cg2d: Sum(rhs),rhsMax =  -3.30564655965233E-03  1.75713269349217E-01
 cg2d: Sum(rhs),rhsMax =  -3.30653242349748E-03  1.75720862472733E-01
 cg2d: Sum(rhs),rhsMax =  -3.30741822810450E-03  1.75728454468089E-01
 cg2d: Sum(rhs),rhsMax =  -3.30830397135705E-03  1.75736045330669E-01
 cg2d: Sum(rhs),rhsMax =  -3.30918965161281E-03  1.75743635055853E-01
 cg2d: Sum(rhs),rhsMax =  -3.31007526748855E-03  1.75751223639036E-01
 cg2d: Sum(rhs),rhsMax =  -3.31096081697721E-03  1.75758811075622E-01
 cg2d: Sum(rhs),rhsMax =  -3.31184629793870E-03  1.75766397361020E-01
 cg2d: Sum(rhs),rhsMax =  -3.31273170913904E-03  1.75773982490645E-01
 cg2d: Sum(rhs),rhsMax =  -3.31361704861812E-03  1.75781566459919E-01
 cg2d: Sum(rhs),rhsMax =  -3.31450231469449E-03  1.75789149264279E-01
 cg2d: Sum(rhs),rhsMax =  -3.31538750528157E-03  1.75796730899161E-01
 cg2d: Sum(rhs),rhsMax =  -3.31627261905460E-03  1.75804311360013E-01
 cg2d: Sum(rhs),rhsMax =  -3.31715765418079E-03  1.75811890642288E-01
 cg2d: Sum(rhs),rhsMax =  -3.31804260894960E-03  1.75819468741452E-01
 cg2d: Sum(rhs),rhsMax =  -3.31892748113744E-03  1.75827045652969E-01
 cg2d: Sum(rhs),rhsMax =  -3.31981226953403E-03  1.75834621372318E-01
 cg2d: Sum(rhs),rhsMax =  -3.32069697180659E-03  1.75842195894987E-01
 cg2d: Sum(rhs),rhsMax =  -3.32158158656418E-03  1.75849769216468E-01
 cg2d: Sum(rhs),rhsMax =  -3.32246611200921E-03  1.75857341332259E-01
 cg2d: Sum(rhs),rhsMax =  -3.32335054625409E-03  1.75864912237874E-01
 cg2d: Sum(rhs),rhsMax =  -3.32423488755660E-03  1.75872481928825E-01
 cg2d: Sum(rhs),rhsMax =  -3.32511913453543E-03  1.75880050400634E-01
 cg2d: Sum(rhs),rhsMax =  -3.32600328454939E-03  1.75887617648836E-01
 cg2d: Sum(rhs),rhsMax =  -3.32688733621099E-03  1.75895183668972E-01
 cg2d: Sum(rhs),rhsMax =  -3.32777128780486E-03  1.75902748456578E-01
 cg2d: Sum(rhs),rhsMax =  -3.32865513770710E-03  1.75910312007224E-01
 cg2d: Sum(rhs),rhsMax =  -3.32953888352748E-03  1.75917874316466E-01
 cg2d: Sum(rhs),rhsMax =  -3.33042252466116E-03  1.75925435379867E-01
 cg2d: Sum(rhs),rhsMax =  -3.33130605796544E-03  1.75932995193012E-01
 cg2d: Sum(rhs),rhsMax =  -3.33218948237028E-03  1.75940553751492E-01
 cg2d: Sum(rhs),rhsMax =  -3.33307279626368E-03  1.75948111050889E-01
 cg2d: Sum(rhs),rhsMax =  -3.33395599676353E-03  1.75955667086818E-01
 cg2d: Sum(rhs),rhsMax =  -3.33483908363136E-03  1.75963221854876E-01
 cg2d: Sum(rhs),rhsMax =  -3.33572205418719E-03  1.75970775350687E-01
 cg2d: Sum(rhs),rhsMax =  -3.33660490642016E-03  1.75978327569875E-01
 cg2d: Sum(rhs),rhsMax =  -3.33748763917204E-03  1.75985878508073E-01
 cg2d: Sum(rhs),rhsMax =  -3.33837025011328E-03  1.75993428160916E-01
 cg2d: Sum(rhs),rhsMax =  -3.33925273768369E-03  1.76000976524066E-01
 cg2d: Sum(rhs),rhsMax =  -3.34013509985688E-03  1.76008523593171E-01
 cg2d: Sum(rhs),rhsMax =  -3.34101733512151E-03  1.76016069363892E-01
 cg2d: Sum(rhs),rhsMax =  -3.34189944185538E-03  1.76023613831909E-01
 cg2d: Sum(rhs),rhsMax =  -3.34278141762150E-03  1.76031156992900E-01
 cg2d: Sum(rhs),rhsMax =  -3.34366326086332E-03  1.76038698842556E-01
 cg2d: Sum(rhs),rhsMax =  -3.34454496965720E-03  1.76046239376565E-01
 cg2d: Sum(rhs),rhsMax =  -3.34542654178333E-03  1.76053778590640E-01
 cg2d: Sum(rhs),rhsMax =  -3.34630797646766E-03  1.76061316480487E-01
 cg2d: Sum(rhs),rhsMax =  -3.34718927094926E-03  1.76068853041831E-01
 cg2d: Sum(rhs),rhsMax =  -3.34807042377498E-03  1.76076388270401E-01
 cg2d: Sum(rhs),rhsMax =  -3.34895143291392E-03  1.76083922161926E-01
 cg2d: Sum(rhs),rhsMax =  -3.34983229642161E-03  1.76091454712158E-01
 cg2d: Sum(rhs),rhsMax =  -3.35071301285233E-03  1.76098985916845E-01
 cg2d: Sum(rhs),rhsMax =  -3.35159357996698E-03  1.76106515771752E-01
 cg2d: Sum(rhs),rhsMax =  -3.35247399619944E-03  1.76114044272639E-01
 cg2d: Sum(rhs),rhsMax =  -3.35335425973082E-03  1.76121571415288E-01
 cg2d: Sum(rhs),rhsMax =  -3.35423436836554E-03  1.76129097195483E-01
 cg2d: Sum(rhs),rhsMax =  -3.35511432051771E-03  1.76136621609017E-01
 cg2d: Sum(rhs),rhsMax =  -3.35599411390678E-03  1.76144144651689E-01
 cg2d: Sum(rhs),rhsMax =  -3.35687374741281E-03  1.76151666319309E-01
 cg2d: Sum(rhs),rhsMax =  -3.35775321832324E-03  1.76159186607693E-01
 cg2d: Sum(rhs),rhsMax =  -3.35863252489947E-03  1.76166705512668E-01
 cg2d: Sum(rhs),rhsMax =  -3.35951166573475E-03  1.76174223030059E-01
 cg2d: Sum(rhs),rhsMax =  -3.36039063817032E-03  1.76181739155719E-01
 cg2d: Sum(rhs),rhsMax =  -3.36126944109399E-03  1.76189253885488E-01
 cg2d: Sum(rhs),rhsMax =  -3.36214807254339E-03  1.76196767215225E-01
 cg2d: Sum(rhs),rhsMax =  -3.36302653001027E-03  1.76204279140798E-01
 cg2d: Sum(rhs),rhsMax =  -3.36390481192650E-03  1.76211789658078E-01
 cg2d: Sum(rhs),rhsMax =  -3.36478291643487E-03  1.76219298762950E-01
(PID.TID 0000.0001)      cg2d_init_res =   8.13218257045002E-04
(PID.TID 0000.0001)      cg2d_iters(min,last) =      -1      76
(PID.TID 0000.0001)      cg2d_last_res =   9.66195126727254E-08
(PID.TID 0000.0001) // =======================================================
(PID.TID 0000.0001) // Begin MONITOR dynamic field statistics
(PID.TID 0000.0001) // =======================================================
(PID.TID 0000.0001) %MON time_tsnumber                =                  9720
(PID.TID 0000.0001) %MON time_secondsf                =   1.1664000000000E+07
(PID.TID 0000.0001) %MON dynstat_eta_max              =   2.2891543497229E-01
(PID.TID 0000.0001) %MON dynstat_eta_min              =  -8.4088354597565E-02
(PID.TID 0000.0001) %MON dynstat_eta_mean             =   2.9640787290036E-06
(PID.TID 0000.0001) %MON dynstat_eta_sd               =   9.2767248935025E-02
(PID.TID 0000.0001) %MON dynstat_eta_del2             =   2.6167115756865E-05
(PID.TID 0000.0001) %MON dynstat_uvel_max             =   1.3021748938035E-01
(PID.TID 0000.0001) %MON dynstat_uvel_min             =  -8.5065804563410E-02
(PID.TID 0000.0001) %MON dynstat_uvel_mean            =  -5.4876209189555E-08
(PID.TID 0000.0001) %MON dynstat_uvel_sd              =   3.8668340425702E-02
(PID.TID 0000.0001) %MON dynstat_uvel_del2            =   6.4335653996486E-05
(PID.TID 0000.0001) %MON dynstat_vvel_max             =   8.1180216373354E-02
(PID.TID 0000.0001) %MON dynstat_vvel_min             =  -9.8937996317207E-02
(PID.TID 0000.0001) %MON dynstat_vvel_mean            =   1.2474903214127E-07
(PID.TID 0000.0001) %MON dynstat_vvel_sd              =   3.4708535427484E-02
(PID.TID 0000.0001) %MON dynstat_vvel_del2            =   4.0456487717347E-05
(PID.TID 0000.0001) %MON dynstat_wvel_max             =   1.8022729786207E-08
(PID.TID 0000.0001) %MON dynstat_wvel_min             =  -6.9774483747096E-09
(PID.TID 0000.0001) %MON dynstat_wvel_mean            =  -5.7048156223674E-22
(PID.TID 0000.0001) %MON dynstat_wvel_sd              =   6.2465073537329E-09
(PID.TID 0000.0001) %MON dynstat_wvel_del2            =   2.5409445154331E-12
(PID.TID 0000.0001) %MON dynstat_theta_max            =   2.0000000000000E+01
(PID.TID 0000.0001) %MON dynstat_theta_min            =   2.0000000000000E+01
(PID.TID 0000.0001) %MON dynstat_theta_mean           =   2.0000000000000E+01
(PID.TID 0000.0001) %MON dynstat_theta_sd             =   3.8014036363165E-13
(PID.TID 0000.0001) %MON dynstat_theta_del2           =   0.0000000000000E+00
(PID.TID 0000.0001) %MON dynstat_salt_max             =   3.0000000000000E+01
(PID.TID 0000.0001) %MON dynstat_salt_min             =   3.0000000000000E+01
(PID.TID 0000.0001) %MON dynstat_salt_mean            =   2.9999999999999E+01
(PID.TID 0000.0001) %MON dynstat_salt_sd              =   5.5777604757167E-13
(PID.TID 0000.0001) %MON dynstat_salt_del2            =   0.0000000000000E+00
(PID.TID 0000.0001) %MON trAdv_CFL_u_max              =   7.8116277989534E-03
(PID.TID 0000.0001) %MON trAdv_CFL_v_max              =   5.9270700115309E-03
(PID.TID 0000.0001) %MON trAdv_CFL_w_max              =   4.7117407218874E-09
(PID.TID 0000.0001) %MON advcfl_uvel_max              =   7.8130493628212E-03
(PID.TID 0000.0001) %MON advcfl_vvel_max              =   5.9362797790324E-03
(PID.TID 0000.0001) %MON advcfl_wvel_max              =   8.6509102973796E-09
(PID.TID 0000.0001) %MON advcfl_W_hf_max              =   0.0000000000000E+00
(PID.TID 0000.0001) %MON pe_b_mean                    =   8.8229262499901E-06
(PID.TID 0000.0001) %MON ke_max                       =   8.4816688178933E-03
(PID.TID 0000.0001) %MON ke_mean                      =   1.3251375678569E-03
(PID.TID 0000.0001) %MON ke_vol                       =   6.8893493896486E+15
(PID.TID 0000.0001) %MON vort_r_min                   =  -1.0506800690240E-06
(PID.TID 0000.0001) %MON vort_r_max                   =   2.8452441081478E-06
(PID.TID 0000.0001) %MON vort_a_mean                  =   1.0600000000000E-04
(PID.TID 0000.0001) %MON vort_a_sd                    =   3.5527528067090E-06
(PID.TID 0000.0001) %MON vort_p_mean                  =   1.1652272308690E-04
(PID.TID 0000.0001) %MON vort_p_sd                    =   4.1785752048689E-05
(PID.TID 0000.0001) %MON surfExpan_theta_mean         =  -1.1380052455934E-20
(PID.TID 0000.0001) %MON surfExpan_salt_mean          =  -1.7078920993501E-20
(PID.TID 0000.0001) // =======================================================
(PID.TID 0000.0001) // End MONITOR dynamic field statistics
(PID.TID 0000.0001) // =======================================================
 cg2d: Sum(rhs),rhsMax =  -3.36566084169383E-03  1.76226806451302E-01
 cg2d: Sum(rhs),rhsMax =  -3.36653858554673E-03  1.76234312719032E-01
 cg2d: Sum(rhs),rhsMax =  -3.36741614609396E-03  1.76241817562047E-01
 cg2d: Sum(rhs),rhsMax =  -3.36829352163702E-03  1.76249320976260E-01
 cg2d: Sum(rhs),rhsMax =  -3.36917070949629E-03  1.76256822957595E-01
 cg2d: Sum(rhs),rhsMax =  -3.37004770856842E-03  1.76264323501984E-01
 cg2d: Sum(rhs),rhsMax =  -3.37092451664334E-03  1.76271822605359E-01
 cg2d: Sum(rhs),rhsMax =  -3.37180113193880E-03  1.76279320263678E-01
 cg2d: Sum(rhs),rhsMax =  -3.37267755199155E-03  1.76286816472892E-01
 cg2d: Sum(rhs),rhsMax =  -3.37355377522159E-03  1.76294311228961E-01
 cg2d: Sum(rhs),rhsMax =  -3.37442979977388E-03  1.76301804527861E-01
 cg2d: Sum(rhs),rhsMax =  -3.37530562325611E-03  1.76309296365572E-01
 cg2d: Sum(rhs),rhsMax =  -3.37618124429768E-03  1.76316786738084E-01
 cg2d: Sum(rhs),rhsMax =  -3.37705666008243E-03  1.76324275641389E-01
 cg2d: Sum(rhs),rhsMax =  -3.37793186912342E-03  1.76331763071497E-01
 cg2d: Sum(rhs),rhsMax =  -3.37880686935858E-03  1.76339249024423E-01
 cg2d: Sum(rhs),rhsMax =  -3.37968165867202E-03  1.76346733496183E-01
 cg2d: Sum(rhs),rhsMax =  -3.38055623554179E-03  1.76354216482805E-01
 cg2d: Sum(rhs),rhsMax =  -3.38143059728730E-03  1.76361697980337E-01
 cg2d: Sum(rhs),rhsMax =  -3.38230474218425E-03  1.76369177984819E-01
 cg2d: Sum(rhs),rhsMax =  -3.38317866805836E-03  1.76376656492305E-01
 cg2d: Sum(rhs),rhsMax =  -3.38405237323828E-03  1.76384133498864E-01
 cg2d: Sum(rhs),rhsMax =  -3.38492585550323E-03  1.76391609000565E-01
 cg2d: Sum(rhs),rhsMax =  -3.38579911270771E-03  1.76399082993484E-01
 cg2d: Sum(rhs),rhsMax =  -3.38667214275137E-03  1.76406555473717E-01
 cg2d: Sum(rhs),rhsMax =  -3.38754494380866E-03  1.76414026437355E-01
 cg2d: Sum(rhs),rhsMax =  -3.38841751378499E-03  1.76421495880506E-01
 cg2d: Sum(rhs),rhsMax =  -3.38928985050380E-03  1.76428963799283E-01
 cg2d: Sum(rhs),rhsMax =  -3.39016195164283E-03  1.76436430189805E-01
 cg2d: Sum(rhs),rhsMax =  -3.39103381572028E-03  1.76443895048204E-01
 cg2d: Sum(rhs),rhsMax =  -3.39190544018184E-03  1.76451358370622E-01
 cg2d: Sum(rhs),rhsMax =  -3.39277682345751E-03  1.76458820153198E-01
 cg2d: Sum(rhs),rhsMax =  -3.39364796252090E-03  1.76466280392101E-01
 cg2d: Sum(rhs),rhsMax =  -3.39451885622059E-03  1.76473739083481E-01
 cg2d: Sum(rhs),rhsMax =  -3.39538950191781E-03  1.76481196223517E-01
 cg2d: Sum(rhs),rhsMax =  -3.39625989800452E-03  1.76488651808392E-01
 cg2d: Sum(rhs),rhsMax =  -3.39713004164502E-03  1.76496105834289E-01
 cg2d: Sum(rhs),rhsMax =  -3.39799993119395E-03  1.76503558297412E-01
 cg2d: Sum(rhs),rhsMax =  -3.39886956384633E-03  1.76511009193964E-01
 cg2d: Sum(rhs),rhsMax =  -3.39973893860792E-03  1.76518458520158E-01
 cg2d: Sum(rhs),rhsMax =  -3.40060805264282E-03  1.76525906272220E-01
 cg2d: Sum(rhs),rhsMax =  -3.40147690386624E-03  1.76533352446379E-01
 cg2d: Sum(rhs),rhsMax =  -3.40234549015867E-03  1.76540797038878E-01
 cg2d: Sum(rhs),rhsMax =  -3.40321380898897E-03  1.76548240045963E-01
 cg2d: Sum(rhs),rhsMax =  -3.40408185870181E-03  1.76555681463897E-01
 cg2d: Sum(rhs),rhsMax =  -3.40494963717044E-03  1.76563121288937E-01
 cg2d: Sum(rhs),rhsMax =  -3.40581714172570E-03  1.76570559517360E-01
 cg2d: Sum(rhs),rhsMax =  -3.40668437048206E-03  1.76577996145451E-01
 cg2d: Sum(rhs),rhsMax =  -3.40755132098771E-03  1.76585431169501E-01
 cg2d: Sum(rhs),rhsMax =  -3.40841799102918E-03  1.76592864585808E-01
 cg2d: Sum(rhs),rhsMax =  -3.40928437894011E-03  1.76600296390680E-01
 cg2d: Sum(rhs),rhsMax =  -3.41015048202744E-03  1.76607726580432E-01
 cg2d: Sum(rhs),rhsMax =  -3.41101629809295E-03  1.76615155151397E-01
 cg2d: Sum(rhs),rhsMax =  -3.41188182513064E-03  1.76622582099899E-01
 cg2d: Sum(rhs),rhsMax =  -3.41274706060038E-03  1.76630007422285E-01
 cg2d: Sum(rhs),rhsMax =  -3.41361200255056E-03  1.76637431114908E-01
 cg2d: Sum(rhs),rhsMax =  -3.41447664836503E-03  1.76644853174123E-01
 cg2d: Sum(rhs),rhsMax =  -3.41534099591331E-03  1.76652273596303E-01
 cg2d: Sum(rhs),rhsMax =  -3.41620504322530E-03  1.76659692377821E-01
 cg2d: Sum(rhs),rhsMax =  -3.41706878764168E-03  1.76667109515064E-01
 cg2d: Sum(rhs),rhsMax =  -3.41793222699557E-03  1.76674525004425E-01
 cg2d: Sum(rhs),rhsMax =  -3.41879535910231E-03  1.76681938842306E-01
 cg2d: Sum(rhs),rhsMax =  -3.41965818117384E-03  1.76689351025121E-01
 cg2d: Sum(rhs),rhsMax =  -3.42052069140121E-03  1.76696761549286E-01
 cg2d: Sum(rhs),rhsMax =  -3.42138288725527E-03  1.76704170411230E-01
 cg2d: Sum(rhs),rhsMax =  -3.42224476667109E-03  1.76711577607395E-01
 cg2d: Sum(rhs),rhsMax =  -3.42310632727134E-03  1.76718983134224E-01
 cg2d: Sum(rhs),rhsMax =  -3.42396756615806E-03  1.76726386988161E-01
 cg2d: Sum(rhs),rhsMax =  -3.42482848169471E-03  1.76733789165685E-01
 cg2d: Sum(rhs),rhsMax =  -3.42568907103125E-03  1.76741189663259E-01
 cg2d: Sum(rhs),rhsMax =  -3.42654933178282E-03  1.76748588477360E-01
 cg2d: Sum(rhs),rhsMax =  -3.42740926184566E-03  1.76755985604488E-01
(PID.TID 0000.0001)      cg2d_init_res =   8.03830026732026E-04
(PID.TID 0000.0001)      cg2d_iters(min,last) =      -1      76
(PID.TID 0000.0001)      cg2d_last_res =   9.69494064932774E-08
(PID.TID 0000.0001) // =======================================================
(PID.TID 0000.0001) // Begin MONITOR dynamic field statistics
(PID.TID 0000.0001) // =======================================================
(PID.TID 0000.0001) %MON time_tsnumber                =                  9792
(PID.TID 0000.0001) %MON time_secondsf                =   1.1750400000000E+07
(PID.TID 0000.0001) %MON dynstat_eta_max              =   2.3034870185444E-01
(PID.TID 0000.0001) %MON dynstat_eta_min              =  -8.4507141009826E-02
(PID.TID 0000.0001) %MON dynstat_eta_mean             =   3.0284094136525E-06
(PID.TID 0000.0001) %MON dynstat_eta_sd               =   9.3284179730285E-02
(PID.TID 0000.0001) %MON dynstat_eta_del2             =   2.6252857381476E-05
(PID.TID 0000.0001) %MON dynstat_uvel_max             =   1.3069546283722E-01
(PID.TID 0000.0001) %MON dynstat_uvel_min             =  -8.5604613557508E-02
(PID.TID 0000.0001) %MON dynstat_uvel_mean            =  -5.8102703905710E-08
(PID.TID 0000.0001) %MON dynstat_uvel_sd              =   3.8858585798284E-02
(PID.TID 0000.0001) %MON dynstat_uvel_del2            =   6.4414493264736E-05
(PID.TID 0000.0001) %MON dynstat_vvel_max             =   8.1272230376460E-02
(PID.TID 0000.0001) %MON dynstat_vvel_min             =  -9.9555149439984E-02
(PID.TID 0000.0001) %MON dynstat_vvel_mean            =   1.2530828117806E-07
(PID.TID 0000.0001) %MON dynstat_vvel_sd              =   3.4908531877992E-02
(PID.TID 0000.0001) %MON dynstat_vvel_del2            =   4.0515971808577E-05
(PID.TID 0000.0001) %MON dynstat_wvel_max             =   1.8002388648783E-08
(PID.TID 0000.0001) %MON dynstat_wvel_min             =  -6.9530969084008E-09
(PID.TID 0000.0001) %MON dynstat_wvel_mean            =  -1.0725445160157E-20
(PID.TID 0000.0001) %MON dynstat_wvel_sd              =   6.2179728315989E-09
(PID.TID 0000.0001) %MON dynstat_wvel_del2            =   2.5155807624975E-12
(PID.TID 0000.0001) %MON dynstat_theta_max            =   2.0000000000000E+01
(PID.TID 0000.0001) %MON dynstat_theta_min            =   2.0000000000000E+01
(PID.TID 0000.0001) %MON dynstat_theta_mean           =   2.0000000000000E+01
(PID.TID 0000.0001) %MON dynstat_theta_sd             =   3.8014036363165E-13
(PID.TID 0000.0001) %MON dynstat_theta_del2           =   0.0000000000000E+00
(PID.TID 0000.0001) %MON dynstat_salt_max             =   3.0000000000000E+01
(PID.TID 0000.0001) %MON dynstat_salt_min             =   3.0000000000000E+01
(PID.TID 0000.0001) %MON dynstat_salt_mean            =   2.9999999999999E+01
(PID.TID 0000.0001) %MON dynstat_salt_sd              =   5.5777604757167E-13
(PID.TID 0000.0001) %MON dynstat_salt_del2            =   0.0000000000000E+00
(PID.TID 0000.0001) %MON trAdv_CFL_u_max              =   7.8402957481472E-03
(PID.TID 0000.0001) %MON trAdv_CFL_v_max              =   5.9640616603448E-03
(PID.TID 0000.0001) %MON trAdv_CFL_w_max              =   4.7064411590384E-09
(PID.TID 0000.0001) %MON advcfl_uvel_max              =   7.8417277702332E-03
(PID.TID 0000.0001) %MON advcfl_vvel_max              =   5.9733089663990E-03
(PID.TID 0000.0001) %MON advcfl_wvel_max              =   8.6411465514160E-09
(PID.TID 0000.0001) %MON advcfl_W_hf_max              =   0.0000000000000E+00
(PID.TID 0000.0001) %MON pe_b_mean                    =   8.9215289278654E-06
(PID.TID 0000.0001) %MON ke_max                       =   8.5443300402625E-03
(PID.TID 0000.0001) %MON ke_mean                      =   1.3392100985104E-03
(PID.TID 0000.0001) %MON ke_vol                       =   6.8893493896486E+15
(PID.TID 0000.0001) %MON vort_r_min                   =  -1.0440242780683E-06
(PID.TID 0000.0001) %MON vort_r_max                   =   2.8547836205950E-06
(PID.TID 0000.0001) %MON vort_a_mean                  =   1.0600000000000E-04
(PID.TID 0000.0001) %MON vort_a_sd                    =   3.5529743354851E-06
(PID.TID 0000.0001) %MON vort_p_mean                  =   1.1652272308690E-04
(PID.TID 0000.0001) %MON vort_p_sd                    =   4.1785873017180E-05
(PID.TID 0000.0001) %MON surfExpan_theta_mean         =  -2.1445095575877E-19
(PID.TID 0000.0001) %MON surfExpan_salt_mean          =  -3.2167817052040E-19
(PID.TID 0000.0001) // =======================================================
(PID.TID 0000.0001) // End MONITOR dynamic field statistics
(PID.TID 0000.0001) // =======================================================
 cg2d: Sum(rhs),rhsMax =  -3.42826885899845E-03  1.76763381041130E-01
 cg2d: Sum(rhs),rhsMax =  -3.42912812059511E-03  1.76770774783797E-01
 cg2d: Sum(rhs),rhsMax =  -3.42998704396565E-03  1.76778166829003E-01
 cg2d: Sum(rhs),rhsMax =  -3.43084562734140E-03  1.76785557173272E-01
 cg2d: Sum(rhs),rhsMax =  -3.43170386809960E-03  1.76792945813135E-01
 cg2d: Sum(rhs),rhsMax =  -3.43256176338082E-03  1.76800332745134E-01
 cg2d: Sum(rhs),rhsMax =  -3.43341931095498E-03  1.76807717965815E-01
 cg2d: Sum(rhs),rhsMax =  -3.43427650874392E-03  1.76815101471741E-01
 cg2d: Sum(rhs),rhsMax =  -3.43513335376166E-03  1.76822483259483E-01
 cg2d: Sum(rhs),rhsMax =  -3.43598984380749E-03  1.76829863325607E-01
 cg2d: Sum(rhs),rhsMax =  -3.43684597664011E-03  1.76837241666698E-01
 cg2d: Sum(rhs),rhsMax =  -3.43770174924596E-03  1.76844618279355E-01
 cg2d: Sum(rhs),rhsMax =  -3.43855715964723E-03  1.76851993160177E-01
 cg2d: Sum(rhs),rhsMax =  -3.43941220528661E-03  1.76859366305774E-01
 cg2d: Sum(rhs),rhsMax =  -3.44026688341927E-03  1.76866737712769E-01
 cg2d: Sum(rhs),rhsMax =  -3.44112119169382E-03  1.76874107377788E-01
 cg2d: Sum(rhs),rhsMax =  -3.44197512779075E-03  1.76881475297464E-01
 cg2d: Sum(rhs),rhsMax =  -3.44282868883567E-03  1.76888841468447E-01
 cg2d: Sum(rhs),rhsMax =  -3.44368187239034E-03  1.76896205887390E-01
 cg2d: Sum(rhs),rhsMax =  -3.44453467586532E-03  1.76903568550956E-01
 cg2d: Sum(rhs),rhsMax =  -3.44538709671443E-03  1.76910929455818E-01
 cg2d: Sum(rhs),rhsMax =  -3.44623913262907E-03  1.76918288598654E-01
 cg2d: Sum(rhs),rhsMax =  -3.44709078123710E-03  1.76925645976155E-01
 cg2d: Sum(rhs),rhsMax =  -3.44794203950114E-03  1.76933001585021E-01
 cg2d: Sum(rhs),rhsMax =  -3.44879290508766E-03  1.76940355421953E-01
 cg2d: Sum(rhs),rhsMax =  -3.44964337500357E-03  1.76947707483673E-01
 cg2d: Sum(rhs),rhsMax =  -3.45049344714290E-03  1.76955057766905E-01
 cg2d: Sum(rhs),rhsMax =  -3.45134311827218E-03  1.76962406268376E-01
 cg2d: Sum(rhs),rhsMax =  -3.45219238631862E-03  1.76969752984836E-01
 cg2d: Sum(rhs),rhsMax =  -3.45304124846704E-03  1.76977097913031E-01
 cg2d: Sum(rhs),rhsMax =  -3.45388970206571E-03  1.76984441049719E-01
 cg2d: Sum(rhs),rhsMax =  -3.45473774486097E-03  1.76991782391673E-01
 cg2d: Sum(rhs),rhsMax =  -3.45558537342223E-03  1.76999121935669E-01
 cg2d: Sum(rhs),rhsMax =  -3.45643258603354E-03  1.77006459678493E-01
 cg2d: Sum(rhs),rhsMax =  -3.45727937906324E-03  1.77013795616940E-01
 cg2d: Sum(rhs),rhsMax =  -3.45812575041721E-03  1.77021129747809E-01
 cg2d: Sum(rhs),rhsMax =  -3.45897169748341E-03  1.77028462067918E-01
 cg2d: Sum(rhs),rhsMax =  -3.45981721665093E-03  1.77035792574092E-01
 cg2d: Sum(rhs),rhsMax =  -3.46066230636573E-03  1.77043121263150E-01
 cg2d: Sum(rhs),rhsMax =  -3.46150696351335E-03  1.77050448131942E-01
 cg2d: Sum(rhs),rhsMax =  -3.46235118501488E-03  1.77057773177308E-01
 cg2d: Sum(rhs),rhsMax =  -3.46319496862740E-03  1.77065096396111E-01
 cg2d: Sum(rhs),rhsMax =  -3.46403831149961E-03  1.77072417785208E-01
 cg2d: Sum(rhs),rhsMax =  -3.46488121027400E-03  1.77079737341486E-01
 cg2d: Sum(rhs),rhsMax =  -3.46572366306857E-03  1.77087055061817E-01
 cg2d: Sum(rhs),rhsMax =  -3.46656566656394E-03  1.77094370943095E-01
 cg2d: Sum(rhs),rhsMax =  -3.46740721822126E-03  1.77101684982224E-01
 cg2d: Sum(rhs),rhsMax =  -3.46824831512917E-03  1.77108997176116E-01
 cg2d: Sum(rhs),rhsMax =  -3.46908895468864E-03  1.77116307521685E-01
 cg2d: Sum(rhs),rhsMax =  -3.46992913345924E-03  1.77123616015858E-01
 cg2d: Sum(rhs),rhsMax =  -3.47076884933868E-03  1.77130922655576E-01
 cg2d: Sum(rhs),rhsMax =  -3.47160809921350E-03  1.77138227437785E-01
 cg2d: Sum(rhs),rhsMax =  -3.47244688013867E-03  1.77145530359430E-01
 cg2d: Sum(rhs),rhsMax =  -3.47328518952765E-03  1.77152831417482E-01
 cg2d: Sum(rhs),rhsMax =  -3.47412302415950E-03  1.77160130608913E-01
 cg2d: Sum(rhs),rhsMax =  -3.47496038140200E-03  1.77167427930702E-01
 cg2d: Sum(rhs),rhsMax =  -3.47579725821242E-03  1.77174723379838E-01
 cg2d: Sum(rhs),rhsMax =  -3.47663365169247E-03  1.77182016953318E-01
 cg2d: Sum(rhs),rhsMax =  -3.47746955937468E-03  1.77189308648156E-01
 cg2d: Sum(rhs),rhsMax =  -3.47830497800117E-03  1.77196598461361E-01
 cg2d: Sum(rhs),rhsMax =  -3.47913990515980E-03  1.77203886389965E-01
 cg2d: Sum(rhs),rhsMax =  -3.47997433651904E-03  1.77211172430996E-01
 cg2d: Sum(rhs),rhsMax =  -3.48080827088420E-03  1.77218456581501E-01
 cg2d: Sum(rhs),rhsMax =  -3.48164170407450E-03  1.77225738838529E-01
 cg2d: Sum(rhs),rhsMax =  -3.48247463365466E-03  1.77233019199146E-01
 cg2d: Sum(rhs),rhsMax =  -3.48330705658109E-03  1.77240297660417E-01
 cg2d: Sum(rhs),rhsMax =  -3.48413896995466E-03  1.77247574219422E-01
 cg2d: Sum(rhs),rhsMax =  -3.48497037054230E-03  1.77254848873252E-01
 cg2d: Sum(rhs),rhsMax =  -3.48580125563544E-03  1.77262121619000E-01
 cg2d: Sum(rhs),rhsMax =  -3.48663162175690E-03  1.77269392453767E-01
 cg2d: Sum(rhs),rhsMax =  -3.48746146637029E-03  1.77276661374679E-01
 cg2d: Sum(rhs),rhsMax =  -3.48829078622144E-03  1.77283928378853E-01
(PID.TID 0000.0001)      cg2d_init_res =   7.94319100018494E-04
(PID.TID 0000.0001)      cg2d_iters(min,last) =      -1      76
(PID.TID 0000.0001)      cg2d_last_res =   9.67048567113216E-08
(PID.TID 0000.0001) // =======================================================
(PID.TID 0000.0001) // Begin MONITOR dynamic field statistics
(PID.TID 0000.0001) // =======================================================
(PID.TID 0000.0001) %MON time_tsnumber                =                  9864
(PID.TID 0000.0001) %MON time_secondsf                =   1.1836800000000E+07
(PID.TID 0000.0001) %MON dynstat_eta_max              =   2.3177582675406E-01
(PID.TID 0000.0001) %MON dynstat_eta_min              =  -8.4915274273802E-02
(PID.TID 0000.0001) %MON dynstat_eta_mean             =   3.0913660356966E-06
(PID.TID 0000.0001) %MON dynstat_eta_sd               =   9.3798843911231E-02
(PID.TID 0000.0001) %MON dynstat_eta_del2             =   2.6340809394138E-05
(PID.TID 0000.0001) %MON dynstat_uvel_max             =   1.3118055280297E-01
(PID.TID 0000.0001) %MON dynstat_uvel_min             =  -8.6119342936731E-02
(PID.TID 0000.0001) %MON dynstat_uvel_mean            =  -6.1549963584982E-08
(PID.TID 0000.0001) %MON dynstat_uvel_sd              =   3.9046968216525E-02
(PID.TID 0000.0001) %MON dynstat_uvel_del2            =   6.4496568786879E-05
(PID.TID 0000.0001) %MON dynstat_vvel_max             =   8.1322130771591E-02
(PID.TID 0000.0001) %MON dynstat_vvel_min             =  -1.0015188892202E-01
(PID.TID 0000.0001) %MON dynstat_vvel_mean            =   1.2667215847973E-07
(PID.TID 0000.0001) %MON dynstat_vvel_sd              =   3.5109102825062E-02
(PID.TID 0000.0001) %MON dynstat_vvel_del2            =   4.0574249141192E-05
(PID.TID 0000.0001) %MON dynstat_wvel_max             =   1.7990757878579E-08
(PID.TID 0000.0001) %MON dynstat_wvel_min             =  -7.1607169974595E-09
(PID.TID 0000.0001) %MON dynstat_wvel_mean            =  -2.2157258980668E-21
(PID.TID 0000.0001) %MON dynstat_wvel_sd              =   6.1910315157904E-09
(PID.TID 0000.0001) %MON dynstat_wvel_del2            =   2.4910194708937E-12
(PID.TID 0000.0001) %MON dynstat_theta_max            =   2.0000000000000E+01
(PID.TID 0000.0001) %MON dynstat_theta_min            =   2.0000000000000E+01
(PID.TID 0000.0001) %MON dynstat_theta_mean           =   2.0000000000000E+01
(PID.TID 0000.0001) %MON dynstat_theta_sd             =   3.8014036363165E-13
(PID.TID 0000.0001) %MON dynstat_theta_del2           =   0.0000000000000E+00
(PID.TID 0000.0001) %MON dynstat_salt_max             =   3.0000000000000E+01
(PID.TID 0000.0001) %MON dynstat_salt_min             =   3.0000000000000E+01
(PID.TID 0000.0001) %MON dynstat_salt_mean            =   2.9999999999999E+01
(PID.TID 0000.0001) %MON dynstat_salt_sd              =   5.5777604757167E-13
(PID.TID 0000.0001) %MON dynstat_salt_del2            =   0.0000000000000E+00
(PID.TID 0000.0001) %MON trAdv_CFL_u_max              =   7.8693921383091E-03
(PID.TID 0000.0001) %MON trAdv_CFL_v_max              =   5.9998308923274E-03
(PID.TID 0000.0001) %MON trAdv_CFL_w_max              =   4.7038043327946E-09
(PID.TID 0000.0001) %MON advcfl_uvel_max              =   7.8708331681780E-03
(PID.TID 0000.0001) %MON advcfl_vvel_max              =   6.0091133353213E-03
(PID.TID 0000.0001) %MON advcfl_wvel_max              =   8.6355637817178E-09
(PID.TID 0000.0001) %MON advcfl_W_hf_max              =   0.0000000000000E+00
(PID.TID 0000.0001) %MON pe_b_mean                    =   9.0202435799790E-06
(PID.TID 0000.0001) %MON ke_max                       =   8.6082472303750E-03
(PID.TID 0000.0001) %MON ke_mean                      =   1.3533058121958E-03
(PID.TID 0000.0001) %MON ke_vol                       =   6.8893493896486E+15
(PID.TID 0000.0001) %MON vort_r_min                   =  -1.0374243630544E-06
(PID.TID 0000.0001) %MON vort_r_max                   =   2.8643918357070E-06
(PID.TID 0000.0001) %MON vort_a_mean                  =   1.0600000000000E-04
(PID.TID 0000.0001) %MON vort_a_sd                    =   3.5531995082615E-06
(PID.TID 0000.0001) %MON vort_p_mean                  =   1.1652272308690E-04
(PID.TID 0000.0001) %MON vort_p_sd                    =   4.1785987501438E-05
(PID.TID 0000.0001) %MON surfExpan_theta_mean         =  -4.4306928496477E-20
(PID.TID 0000.0001) %MON surfExpan_salt_mean          =  -6.6463229981335E-20
(PID.TID 0000.0001) // =======================================================
(PID.TID 0000.0001) // End MONITOR dynamic field statistics
(PID.TID 0000.0001) // =======================================================
 cg2d: Sum(rhs),rhsMax =  -3.48911957841988E-03  1.77291193463421E-01
 cg2d: Sum(rhs),rhsMax =  -3.48994783951761E-03  1.77298456625523E-01
 cg2d: Sum(rhs),rhsMax =  -3.49077556717639E-03  1.77305717862311E-01
 cg2d: Sum(rhs),rhsMax =  -3.49160275782336E-03  1.77312977170946E-01
 cg2d: Sum(rhs),rhsMax =  -3.49242940853184E-03  1.77320234548594E-01
 cg2d: Sum(rhs),rhsMax =  -3.49325551594480E-03  1.77327489992431E-01
 cg2d: Sum(rhs),rhsMax =  -3.49408107728775E-03  1.77334743499645E-01
 cg2d: Sum(rhs),rhsMax =  -3.49490608931834E-03  1.77341995067428E-01
 cg2d: Sum(rhs),rhsMax =  -3.49573054915456E-03  1.77349244692987E-01
 cg2d: Sum(rhs),rhsMax =  -3.49655445287450E-03  1.77356492373533E-01
 cg2d: Sum(rhs),rhsMax =  -3.49737779814813E-03  1.77363738106288E-01
 cg2d: Sum(rhs),rhsMax =  -3.49820058148711E-03  1.77370981888485E-01
 cg2d: Sum(rhs),rhsMax =  -3.49902279990530E-03  1.77378223717360E-01
 cg2d: Sum(rhs),rhsMax =  -3.49984444990524E-03  1.77385463590161E-01
 cg2d: Sum(rhs),rhsMax =  -3.50066552864651E-03  1.77392701504149E-01
 cg2d: Sum(rhs),rhsMax =  -3.50148603302014E-03  1.77399937456590E-01
 cg2d: Sum(rhs),rhsMax =  -3.50230595941094E-03  1.77407171444758E-01
 cg2d: Sum(rhs),rhsMax =  -3.50312530475805E-03  1.77414403465935E-01
 cg2d: Sum(rhs),rhsMax =  -3.50394406580956E-03  1.77421633517421E-01
 cg2d: Sum(rhs),rhsMax =  -3.50476223937242E-03  1.77428861596516E-01
 cg2d: Sum(rhs),rhsMax =  -3.50557982227172E-03  1.77436087700525E-01
 cg2d: Sum(rhs),rhsMax =  -3.50639681112573E-03  1.77443311826773E-01
 cg2d: Sum(rhs),rhsMax =  -3.50721320271591E-03  1.77450533972591E-01
 cg2d: Sum(rhs),rhsMax =  -3.50802899392494E-03  1.77457754135319E-01
 cg2d: Sum(rhs),rhsMax =  -3.50884418136072E-03  1.77464972312299E-01
 cg2d: Sum(rhs),rhsMax =  -3.50965876130019E-03  1.77472188500885E-01
 cg2d: Sum(rhs),rhsMax =  -3.51047273119576E-03  1.77479402698445E-01
 cg2d: Sum(rhs),rhsMax =  -3.51128608719220E-03  1.77486614902356E-01
 cg2d: Sum(rhs),rhsMax =  -3.51209882596927E-03  1.77493825109998E-01
 cg2d: Sum(rhs),rhsMax =  -3.51291094432226E-03  1.77501033318768E-01
 cg2d: Sum(rhs),rhsMax =  -3.51372243911047E-03  1.77508239526058E-01
 cg2d: Sum(rhs),rhsMax =  -3.51453330661039E-03  1.77515443729286E-01
 cg2d: Sum(rhs),rhsMax =  -3.51534354362384E-03  1.77522645925861E-01
 cg2d: Sum(rhs),rhsMax =  -3.51615314645736E-03  1.77529846113228E-01
 cg2d: Sum(rhs),rhsMax =  -3.51696211220970E-03  1.77537044288806E-01
 cg2d: Sum(rhs),rhsMax =  -3.51777043712694E-03  1.77544240450054E-01
 cg2d: Sum(rhs),rhsMax =  -3.51857811768026E-03  1.77551434594416E-01
 cg2d: Sum(rhs),rhsMax =  -3.51938515065927E-03  1.77558626719359E-01
 cg2d: Sum(rhs),rhsMax =  -3.52019153273227E-03  1.77565816822361E-01
 cg2d: Sum(rhs),rhsMax =  -3.52099726003161E-03  1.77573004900906E-01
 cg2d: Sum(rhs),rhsMax =  -3.52180232947666E-03  1.77580190952471E-01
 cg2d: Sum(rhs),rhsMax =  -3.52260673736767E-03  1.77587374974567E-01
 cg2d: Sum(rhs),rhsMax =  -3.52341048027960E-03  1.77594556964700E-01
 cg2d: Sum(rhs),rhsMax =  -3.52421355469865E-03  1.77601736920387E-01
 cg2d: Sum(rhs),rhsMax =  -3.52501595696516E-03  1.77608914839152E-01
 cg2d: Sum(rhs),rhsMax =  -3.52581768398222E-03  1.77616090718539E-01
 cg2d: Sum(rhs),rhsMax =  -3.52661873188825E-03  1.77623264556084E-01
 cg2d: Sum(rhs),rhsMax =  -3.52741909736395E-03  1.77630436349347E-01
 cg2d: Sum(rhs),rhsMax =  -3.52821877641972E-03  1.77637606095887E-01
 cg2d: Sum(rhs),rhsMax =  -3.52901776559506E-03  1.77644773793272E-01
 cg2d: Sum(rhs),rhsMax =  -3.52981606193500E-03  1.77651939439090E-01
 cg2d: Sum(rhs),rhsMax =  -3.53061366109603E-03  1.77659103030927E-01
 cg2d: Sum(rhs),rhsMax =  -3.53141055957045E-03  1.77666264566382E-01
 cg2d: Sum(rhs),rhsMax =  -3.53220675393034E-03  1.77673424043064E-01
 cg2d: Sum(rhs),rhsMax =  -3.53300224082269E-03  1.77680581458587E-01
 cg2d: Sum(rhs),rhsMax =  -3.53379701630000E-03  1.77687736810579E-01
 cg2d: Sum(rhs),rhsMax =  -3.53459107637597E-03  1.77694890096672E-01
 cg2d: Sum(rhs),rhsMax =  -3.53538441767403E-03  1.77702041314505E-01
 cg2d: Sum(rhs),rhsMax =  -3.53617703688660E-03  1.77709190461742E-01
 cg2d: Sum(rhs),rhsMax =  -3.53696892981984E-03  1.77716337536040E-01
 cg2d: Sum(rhs),rhsMax =  -3.53776009285380E-03  1.77723482535062E-01
 cg2d: Sum(rhs),rhsMax =  -3.53855052262675E-03  1.77730625456496E-01
 cg2d: Sum(rhs),rhsMax =  -3.53934021500132E-03  1.77737766298031E-01
 cg2d: Sum(rhs),rhsMax =  -3.54012916617915E-03  1.77744905057354E-01
 cg2d: Sum(rhs),rhsMax =  -3.54091737287111E-03  1.77752041732183E-01
 cg2d: Sum(rhs),rhsMax =  -3.54170483125446E-03  1.77759176320224E-01
 cg2d: Sum(rhs),rhsMax =  -3.54249153711448E-03  1.77766308819210E-01
 cg2d: Sum(rhs),rhsMax =  -3.54327748692598E-03  1.77773439226869E-01
 cg2d: Sum(rhs),rhsMax =  -3.54406267703631E-03  1.77780567540943E-01
 cg2d: Sum(rhs),rhsMax =  -3.54484710306167E-03  1.77787693759189E-01
 cg2d: Sum(rhs),rhsMax =  -3.54563076178533E-03  1.77794817879356E-01
 cg2d: Sum(rhs),rhsMax =  -3.54641364933558E-03  1.77801939899225E-01
(PID.TID 0000.0001)      cg2d_init_res =   7.84640114859584E-04
(PID.TID 0000.0001)      cg2d_iters(min,last) =      -1      76
(PID.TID 0000.0001)      cg2d_last_res =   9.57052110457837E-08
(PID.TID 0000.0001) // =======================================================
(PID.TID 0000.0001) // Begin MONITOR dynamic field statistics
(PID.TID 0000.0001) // =======================================================
(PID.TID 0000.0001) %MON time_tsnumber                =                  9936
(PID.TID 0000.0001) %MON time_secondsf                =   1.1923200000000E+07
(PID.TID 0000.0001) %MON dynstat_eta_max              =   2.3319686279768E-01
(PID.TID 0000.0001) %MON dynstat_eta_min              =  -8.5311649750690E-02
(PID.TID 0000.0001) %MON dynstat_eta_mean             =   3.1520017955900E-06
(PID.TID 0000.0001) %MON dynstat_eta_sd               =   9.4311359081264E-02
(PID.TID 0000.0001) %MON dynstat_eta_del2             =   2.6430883568943E-05
(PID.TID 0000.0001) %MON dynstat_uvel_max             =   1.3167092727876E-01
(PID.TID 0000.0001) %MON dynstat_uvel_min             =  -8.6610614403685E-02
(PID.TID 0000.0001) %MON dynstat_uvel_mean            =  -6.5006330662003E-08
(PID.TID 0000.0001) %MON dynstat_uvel_sd              =   3.9233726247445E-02
(PID.TID 0000.0001) %MON dynstat_uvel_del2            =   6.4582050242407E-05
(PID.TID 0000.0001) %MON dynstat_vvel_max             =   8.1332490937326E-02
(PID.TID 0000.0001) %MON dynstat_vvel_min             =  -1.0072765930303E-01
(PID.TID 0000.0001) %MON dynstat_vvel_mean            =   1.2888471403415E-07
(PID.TID 0000.0001) %MON dynstat_vvel_sd              =   3.5309857008290E-02
(PID.TID 0000.0001) %MON dynstat_vvel_del2            =   4.0630847129504E-05
(PID.TID 0000.0001) %MON dynstat_wvel_max             =   1.8006978695630E-08
(PID.TID 0000.0001) %MON dynstat_wvel_min             =  -7.4053612304851E-09
(PID.TID 0000.0001) %MON dynstat_wvel_mean            =   3.1902042489188E-22
(PID.TID 0000.0001) %MON dynstat_wvel_sd              =   6.1658499265047E-09
(PID.TID 0000.0001) %MON dynstat_wvel_del2            =   2.4670013628005E-12
(PID.TID 0000.0001) %MON dynstat_theta_max            =   2.0000000000000E+01
(PID.TID 0000.0001) %MON dynstat_theta_min            =   2.0000000000000E+01
(PID.TID 0000.0001) %MON dynstat_theta_mean           =   2.0000000000000E+01
(PID.TID 0000.0001) %MON dynstat_theta_sd             =   3.8014036363165E-13
(PID.TID 0000.0001) %MON dynstat_theta_del2           =   0.0000000000000E+00
(PID.TID 0000.0001) %MON dynstat_salt_max             =   3.0000000000000E+01
(PID.TID 0000.0001) %MON dynstat_salt_min             =   3.0000000000000E+01
(PID.TID 0000.0001) %MON dynstat_salt_mean            =   2.9999999999999E+01
(PID.TID 0000.0001) %MON dynstat_salt_sd              =   5.5777604757167E-13
(PID.TID 0000.0001) %MON dynstat_salt_del2            =   0.0000000000000E+00
(PID.TID 0000.0001) %MON trAdv_CFL_u_max              =   7.8988070979181E-03
(PID.TID 0000.0001) %MON trAdv_CFL_v_max              =   6.0343441349722E-03
(PID.TID 0000.0001) %MON trAdv_CFL_w_max              =   4.7070612512187E-09
(PID.TID 0000.0001) %MON advcfl_uvel_max              =   7.9002556367257E-03
(PID.TID 0000.0001) %MON advcfl_vvel_max              =   6.0436595581817E-03
(PID.TID 0000.0001) %MON advcfl_wvel_max              =   8.6433497739024E-09
(PID.TID 0000.0001) %MON advcfl_W_hf_max              =   0.0000000000000E+00
(PID.TID 0000.0001) %MON pe_b_mean                    =   9.1190857728607E-06
(PID.TID 0000.0001) %MON ke_max                       =   8.6731897291000E-03
(PID.TID 0000.0001) %MON ke_mean                      =   1.3674196411065E-03
(PID.TID 0000.0001) %MON ke_vol                       =   6.8893493896486E+15
(PID.TID 0000.0001) %MON vort_r_min                   =  -1.0309563964357E-06
(PID.TID 0000.0001) %MON vort_r_max                   =   2.8740328362852E-06
(PID.TID 0000.0001) %MON vort_a_mean                  =   1.0600000000000E-04
(PID.TID 0000.0001) %MON vort_a_sd                    =   3.5534279706171E-06
(PID.TID 0000.0001) %MON vort_p_mean                  =   1.1652272308690E-04
(PID.TID 0000.0001) %MON vort_p_sd                    =   4.1786095960038E-05
(PID.TID 0000.0001) %MON surfExpan_theta_mean         =   6.4100428668705E-21
(PID.TID 0000.0001) %MON surfExpan_salt_mean          =   9.6036956165335E-21
(PID.TID 0000.0001) // =======================================================
(PID.TID 0000.0001) // End MONITOR dynamic field statistics
(PID.TID 0000.0001) // =======================================================
 cg2d: Sum(rhs),rhsMax =  -3.54719576139263E-03  1.77809059816569E-01
 cg2d: Sum(rhs),rhsMax =  -3.54797709506805E-03  1.77816177629174E-01
 cg2d: Sum(rhs),rhsMax =  -3.54875764532950E-03  1.77823293334837E-01
 cg2d: Sum(rhs),rhsMax =  -3.54953740861869E-03  1.77830406931363E-01
 cg2d: Sum(rhs),rhsMax =  -3.55031638196818E-03  1.77837518416568E-01
 cg2d: Sum(rhs),rhsMax =  -3.55109456004821E-03  1.77844627788273E-01
 cg2d: Sum(rhs),rhsMax =  -3.55187194009157E-03  1.77851735044312E-01
 cg2d: Sum(rhs),rhsMax =  -3.55264851721452E-03  1.77858840182522E-01
 cg2d: Sum(rhs),rhsMax =  -3.55342428814647E-03  1.77865943200759E-01
 cg2d: Sum(rhs),rhsMax =  -3.55419924883463E-03  1.77873044096875E-01
 cg2d: Sum(rhs),rhsMax =  -3.55497339479980E-03  1.77880142868743E-01
 cg2d: Sum(rhs),rhsMax =  -3.55574672264067E-03  1.77887239514239E-01
 cg2d: Sum(rhs),rhsMax =  -3.55651922842930E-03  1.77894334031245E-01
 cg2d: Sum(rhs),rhsMax =  -3.55729090777936E-03  1.77901426417663E-01
 cg2d: Sum(rhs),rhsMax =  -3.55806175678385E-03  1.77908516671388E-01
 cg2d: Sum(rhs),rhsMax =  -3.55883177175798E-03  1.77915604790341E-01
 cg2d: Sum(rhs),rhsMax =  -3.55960094800899E-03  1.77922690772436E-01
 cg2d: Sum(rhs),rhsMax =  -3.56036928168758E-03  1.77929774615608E-01
 cg2d: Sum(rhs),rhsMax =  -3.56113676899249E-03  1.77936856317796E-01
 cg2d: Sum(rhs),rhsMax =  -3.56190340563625E-03  1.77943935876949E-01
 cg2d: Sum(rhs),rhsMax =  -3.56266918754874E-03  1.77951013291026E-01
 cg2d: Sum(rhs),rhsMax =  -3.56343411065434E-03  1.77958088557987E-01
 cg2d: Sum(rhs),rhsMax =  -3.56419817094009E-03  1.77965161675815E-01
 cg2d: Sum(rhs),rhsMax =  -3.56496136384015E-03  1.77972232642492E-01
 cg2d: Sum(rhs),rhsMax =  -3.56572368586408E-03  1.77979301456005E-01
 cg2d: Sum(rhs),rhsMax =  -3.56648513215051E-03  1.77986368114364E-01
 cg2d: Sum(rhs),rhsMax =  -3.56724569904718E-03  1.77993432615580E-01
 cg2d: Sum(rhs),rhsMax =  -3.56800538212496E-03  1.78000494957669E-01
 cg2d: Sum(rhs),rhsMax =  -3.56876417729378E-03  1.78007555138657E-01
 cg2d: Sum(rhs),rhsMax =  -3.56952208004604E-03  1.78014613156589E-01
 cg2d: Sum(rhs),rhsMax =  -3.57027908634162E-03  1.78021669009512E-01
 cg2d: Sum(rhs),rhsMax =  -3.57103519196965E-03  1.78028722695477E-01
 cg2d: Sum(rhs),rhsMax =  -3.57179039298026E-03  1.78035774212553E-01
 cg2d: Sum(rhs),rhsMax =  -3.57254468482950E-03  1.78042823558809E-01
 cg2d: Sum(rhs),rhsMax =  -3.57329806305441E-03  1.78049870732332E-01
 cg2d: Sum(rhs),rhsMax =  -3.57405052358702E-03  1.78056915731210E-01
 cg2d: Sum(rhs),rhsMax =  -3.57480206200629E-03  1.78063958553548E-01
 cg2d: Sum(rhs),rhsMax =  -3.57555267369642E-03  1.78070999197447E-01
 cg2d: Sum(rhs),rhsMax =  -3.57630235509423E-03  1.78078037661040E-01
 cg2d: Sum(rhs),rhsMax =  -3.57705110121953E-03  1.78085073942437E-01
 cg2d: Sum(rhs),rhsMax =  -3.57779119010435E-03  1.78092492220738E-01
 cg2d: Sum(rhs),rhsMax =  -3.57852614599731E-03  1.78100116683855E-01
 cg2d: Sum(rhs),rhsMax =  -3.57926015360692E-03  1.78107738762222E-01
 cg2d: Sum(rhs),rhsMax =  -3.57999320847141E-03  1.78115358453102E-01
 cg2d: Sum(rhs),rhsMax =  -3.58072530682940E-03  1.78122975753778E-01
 cg2d: Sum(rhs),rhsMax =  -3.58145644352620E-03  1.78130590661532E-01
 cg2d: Sum(rhs),rhsMax =  -3.58218661460340E-03  1.78138203173666E-01
 cg2d: Sum(rhs),rhsMax =  -3.58291581605133E-03  1.78145813287484E-01
 cg2d: Sum(rhs),rhsMax =  -3.58364404225284E-03  1.78153421000303E-01
 cg2d: Sum(rhs),rhsMax =  -3.58437128957161E-03  1.78161026309446E-01
 cg2d: Sum(rhs),rhsMax =  -3.58509755350719E-03  1.78168629212254E-01
 cg2d: Sum(rhs),rhsMax =  -3.58582282953393E-03  1.78176229706070E-01
 cg2d: Sum(rhs),rhsMax =  -3.58654711320842E-03  1.78183827788243E-01
 cg2d: Sum(rhs),rhsMax =  -3.58727039960759E-03  1.78191423456141E-01
 cg2d: Sum(rhs),rhsMax =  -3.58799268485610E-03  1.78199016707141E-01
 cg2d: Sum(rhs),rhsMax =  -3.58871396362243E-03  1.78206607538618E-01
 cg2d: Sum(rhs),rhsMax =  -3.58943423231008E-03  1.78214195947967E-01
 cg2d: Sum(rhs),rhsMax =  -3.59015348558375E-03  1.78221781932593E-01
 cg2d: Sum(rhs),rhsMax =  -3.59087171928716E-03  1.78229365489910E-01
 cg2d: Sum(rhs),rhsMax =  -3.59158892852753E-03  1.78236946617331E-01
 cg2d: Sum(rhs),rhsMax =  -3.59230510894138E-03  1.78244525312288E-01
 cg2d: Sum(rhs),rhsMax =  -3.59302025575351E-03  1.78252101572224E-01
 cg2d: Sum(rhs),rhsMax =  -3.59373436467779E-03  1.78259675394589E-01
 cg2d: Sum(rhs),rhsMax =  -3.59444743101761E-03  1.78267246776842E-01
 cg2d: Sum(rhs),rhsMax =  -3.59515944959789E-03  1.78274815716447E-01
 cg2d: Sum(rhs),rhsMax =  -3.59587041638872E-03  1.78282382210886E-01
 cg2d: Sum(rhs),rhsMax =  -3.59658032615421E-03  1.78289946257650E-01
 cg2d: Sum(rhs),rhsMax =  -3.59728917501271E-03  1.78297507854230E-01
 cg2d: Sum(rhs),rhsMax =  -3.59799695709919E-03  1.78305066998131E-01
 cg2d: Sum(rhs),rhsMax =  -3.59870366859255E-03  1.78312623686880E-01
 cg2d: Sum(rhs),rhsMax =  -3.59940930463615E-03  1.78320177917993E-01
 cg2d: Sum(rhs),rhsMax =  -3.60011386018613E-03  1.78327729689007E-01
(PID.TID 0000.0001)      cg2d_init_res =   7.74697211878167E-04
(PID.TID 0000.0001)      cg2d_iters(min,last) =      -1      76
(PID.TID 0000.0001)      cg2d_last_res =   9.37750424183600E-08
(PID.TID 0000.0001) // =======================================================
(PID.TID 0000.0001) // Begin MONITOR dynamic field statistics
(PID.TID 0000.0001) // =======================================================
(PID.TID 0000.0001) %MON time_tsnumber                =                 10008
(PID.TID 0000.0001) %MON time_secondsf                =   1.2009600000000E+07
(PID.TID 0000.0001) %MON dynstat_eta_max              =   2.3461183009438E-01
(PID.TID 0000.0001) %MON dynstat_eta_min              =  -8.5695259555734E-02
(PID.TID 0000.0001) %MON dynstat_eta_mean             =   3.2091186135328E-06
(PID.TID 0000.0001) %MON dynstat_eta_sd               =   9.4821820926049E-02
(PID.TID 0000.0001) %MON dynstat_eta_del2             =   2.6522971659346E-05
(PID.TID 0000.0001) %MON dynstat_uvel_max             =   1.3216473288502E-01
(PID.TID 0000.0001) %MON dynstat_uvel_min             =  -8.7080208139347E-02
(PID.TID 0000.0001) %MON dynstat_uvel_mean            =  -6.8233678633470E-08
(PID.TID 0000.0001) %MON dynstat_uvel_sd              =   3.9419167369805E-02
(PID.TID 0000.0001) %MON dynstat_uvel_del2            =   6.4671052750029E-05
(PID.TID 0000.0001) %MON dynstat_vvel_max             =   8.1306617605142E-02
(PID.TID 0000.0001) %MON dynstat_vvel_min             =  -1.0128227100641E-01
(PID.TID 0000.0001) %MON dynstat_vvel_mean            =   1.3194687293229E-07
(PID.TID 0000.0001) %MON dynstat_vvel_sd              =   3.5510339487056E-02
(PID.TID 0000.0001) %MON dynstat_vvel_del2            =   4.0685371789654E-05
(PID.TID 0000.0001) %MON dynstat_wvel_max             =   1.8035267003288E-08
(PID.TID 0000.0001) %MON dynstat_wvel_min             =  -7.6561300922185E-09
(PID.TID 0000.0001) %MON dynstat_wvel_mean            =  -4.7103823261649E-21
(PID.TID 0000.0001) %MON dynstat_wvel_sd              =   6.1425231805054E-09
(PID.TID 0000.0001) %MON dynstat_wvel_del2            =   2.4432526275893E-12
(PID.TID 0000.0001) %MON dynstat_theta_max            =   2.0000000000000E+01
(PID.TID 0000.0001) %MON dynstat_theta_min            =   2.0000000000000E+01
(PID.TID 0000.0001) %MON dynstat_theta_mean           =   2.0000000000000E+01
(PID.TID 0000.0001) %MON dynstat_theta_sd             =   3.8014036363165E-13
(PID.TID 0000.0001) %MON dynstat_theta_del2           =   0.0000000000000E+00
(PID.TID 0000.0001) %MON dynstat_salt_max             =   3.0000000000000E+01
(PID.TID 0000.0001) %MON dynstat_salt_min             =   3.0000000000000E+01
(PID.TID 0000.0001) %MON dynstat_salt_mean            =   2.9999999999999E+01
(PID.TID 0000.0001) %MON dynstat_salt_sd              =   5.5777604757167E-13
(PID.TID 0000.0001) %MON dynstat_salt_del2            =   0.0000000000000E+00
(PID.TID 0000.0001) %MON trAdv_CFL_u_max              =   7.9284294411881E-03
(PID.TID 0000.0001) %MON trAdv_CFL_v_max              =   6.0675897167839E-03
(PID.TID 0000.0001) %MON trAdv_CFL_w_max              =   4.7089656881863E-09
(PID.TID 0000.0001) %MON advcfl_uvel_max              =   7.9298839731012E-03
(PID.TID 0000.0001) %MON advcfl_vvel_max              =   6.0769362603846E-03
(PID.TID 0000.0001) %MON advcfl_wvel_max              =   8.6569281615783E-09
(PID.TID 0000.0001) %MON advcfl_W_hf_max              =   0.0000000000000E+00
(PID.TID 0000.0001) %MON pe_b_mean                    =   9.2180673354180E-06
(PID.TID 0000.0001) %MON ke_max                       =   8.7389180203219E-03
(PID.TID 0000.0001) %MON ke_mean                      =   1.3815468397052E-03
(PID.TID 0000.0001) %MON ke_vol                       =   6.8893493896486E+15
(PID.TID 0000.0001) %MON vort_r_min                   =  -1.0246950347242E-06
(PID.TID 0000.0001) %MON vort_r_max                   =   2.8836715055502E-06
(PID.TID 0000.0001) %MON vort_a_mean                  =   1.0600000000000E-04
(PID.TID 0000.0001) %MON vort_a_sd                    =   3.5536593543367E-06
(PID.TID 0000.0001) %MON vort_p_mean                  =   1.1652272308690E-04
(PID.TID 0000.0001) %MON vort_p_sd                    =   4.1786198905376E-05
(PID.TID 0000.0001) %MON surfExpan_theta_mean         =  -9.4163494285877E-20
(PID.TID 0000.0001) %MON surfExpan_salt_mean          =  -1.4124919012204E-19
(PID.TID 0000.0001) // =======================================================
(PID.TID 0000.0001) // End MONITOR dynamic field statistics
(PID.TID 0000.0001) // =======================================================
 cg2d: Sum(rhs),rhsMax =  -3.60081733068546E-03  1.78335278997471E-01
 cg2d: Sum(rhs),rhsMax =  -3.60151971127884E-03  1.78342825840935E-01
 cg2d: Sum(rhs),rhsMax =  -3.60222099709310E-03  1.78350370216966E-01
 cg2d: Sum(rhs),rhsMax =  -3.60292118356298E-03  1.78357912123133E-01
 cg2d: Sum(rhs),rhsMax =  -3.60362026567275E-03  1.78365451557026E-01
 cg2d: Sum(rhs),rhsMax =  -3.60431823862505E-03  1.78372988516232E-01
 cg2d: Sum(rhs),rhsMax =  -3.60501509767445E-03  1.78380522998357E-01
 cg2d: Sum(rhs),rhsMax =  -3.60571083761149E-03  1.78388055001004E-01
 cg2d: Sum(rhs),rhsMax =  -3.60640545429600E-03  1.78395584521805E-01
 cg2d: Sum(rhs),rhsMax =  -3.60709894249831E-03  1.78403111558388E-01
 cg2d: Sum(rhs),rhsMax =  -3.60779129665607E-03  1.78410636108391E-01
 cg2d: Sum(rhs),rhsMax =  -3.60848251294995E-03  1.78418158169461E-01
 cg2d: Sum(rhs),rhsMax =  -3.60917258582441E-03  1.78425677739262E-01
 cg2d: Sum(rhs),rhsMax =  -3.60986151037642E-03  1.78433194815460E-01
 cg2d: Sum(rhs),rhsMax =  -3.61054928164162E-03  1.78440709395735E-01
 cg2d: Sum(rhs),rhsMax =  -3.61123589490861E-03  1.78448221477777E-01
 cg2d: Sum(rhs),rhsMax =  -3.61192134497504E-03  1.78455731059280E-01
 cg2d: Sum(rhs),rhsMax =  -3.61260562680488E-03  1.78463238137951E-01
 cg2d: Sum(rhs),rhsMax =  -3.61328873551909E-03  1.78470742711507E-01
 cg2d: Sum(rhs),rhsMax =  -3.61397066643147E-03  1.78478244777676E-01
 cg2d: Sum(rhs),rhsMax =  -3.61465141363315E-03  1.78485744334191E-01
 cg2d: Sum(rhs),rhsMax =  -3.61533097284111E-03  1.78493241378799E-01
 cg2d: Sum(rhs),rhsMax =  -3.61600933930735E-03  1.78500735909250E-01
 cg2d: Sum(rhs),rhsMax =  -3.61668650699519E-03  1.78508227923319E-01
 cg2d: Sum(rhs),rhsMax =  -3.61736247164831E-03  1.78515717418765E-01
 cg2d: Sum(rhs),rhsMax =  -3.61803722730968E-03  1.78523204393381E-01
 cg2d: Sum(rhs),rhsMax =  -3.61871076971019E-03  1.78530688844963E-01
 cg2d: Sum(rhs),rhsMax =  -3.61938309315272E-03  1.78538170771300E-01
 cg2d: Sum(rhs),rhsMax =  -3.62005419296428E-03  1.78545650170211E-01
 cg2d: Sum(rhs),rhsMax =  -3.62072406356937E-03  1.78553127039525E-01
 cg2d: Sum(rhs),rhsMax =  -3.62139270002599E-03  1.78560601377061E-01
 cg2d: Sum(rhs),rhsMax =  -3.62206009702934E-03  1.78568073180666E-01
 cg2d: Sum(rhs),rhsMax =  -3.62272624979818E-03  1.78575542448183E-01
 cg2d: Sum(rhs),rhsMax =  -3.62339115277242E-03  1.78583009177481E-01
 cg2d: Sum(rhs),rhsMax =  -3.62405480064070E-03  1.78590473366424E-01
 cg2d: Sum(rhs),rhsMax =  -3.62471718842486E-03  1.78597935012888E-01
 cg2d: Sum(rhs),rhsMax =  -3.62537831081403E-03  1.78605394114768E-01
 cg2d: Sum(rhs),rhsMax =  -3.62603816259676E-03  1.78612850669949E-01
 cg2d: Sum(rhs),rhsMax =  -3.62669673814924E-03  1.78620304676355E-01
 cg2d: Sum(rhs),rhsMax =  -3.62735403300331E-03  1.78627756131888E-01
 cg2d: Sum(rhs),rhsMax =  -3.62801004129784E-03  1.78635205034482E-01
 cg2d: Sum(rhs),rhsMax =  -3.62866475754759E-03  1.78642651382069E-01
 cg2d: Sum(rhs),rhsMax =  -3.62931817718381E-03  1.78650095172595E-01
 cg2d: Sum(rhs),rhsMax =  -3.62997029396821E-03  1.78657536404016E-01
 cg2d: Sum(rhs),rhsMax =  -3.63062110326506E-03  1.78664975074297E-01
 cg2d: Sum(rhs),rhsMax =  -3.63127059941118E-03  1.78672411181405E-01
 cg2d: Sum(rhs),rhsMax =  -3.63191877738248E-03  1.78679844723330E-01
 cg2d: Sum(rhs),rhsMax =  -3.63256563120311E-03  1.78687275698061E-01
 cg2d: Sum(rhs),rhsMax =  -3.63321115623688E-03  1.78694704103603E-01
 cg2d: Sum(rhs),rhsMax =  -3.63385534634502E-03  1.78702129937963E-01
 cg2d: Sum(rhs),rhsMax =  -3.63449819696722E-03  1.78709553199168E-01
 cg2d: Sum(rhs),rhsMax =  -3.63513970176393E-03  1.78716973885246E-01
 cg2d: Sum(rhs),rhsMax =  -3.63577985619058E-03  1.78724391994236E-01
 cg2d: Sum(rhs),rhsMax =  -3.63641865432433E-03  1.78731807524183E-01
 cg2d: Sum(rhs),rhsMax =  -3.63705609073088E-03  1.78739220473159E-01
 cg2d: Sum(rhs),rhsMax =  -3.63769216002574E-03  1.78746630839219E-01
 cg2d: Sum(rhs),rhsMax =  -3.63832685690587E-03  1.78754038620452E-01
 cg2d: Sum(rhs),rhsMax =  -3.63896017576728E-03  1.78761443814936E-01
 cg2d: Sum(rhs),rhsMax =  -3.63959211087832E-03  1.78768846420773E-01
 cg2d: Sum(rhs),rhsMax =  -3.64022265720740E-03  1.78776246436074E-01
 cg2d: Sum(rhs),rhsMax =  -3.64085180873248E-03  1.78783643858945E-01
 cg2d: Sum(rhs),rhsMax =  -3.64147956020802E-03  1.78791038687518E-01
 cg2d: Sum(rhs),rhsMax =  -3.64210590630362E-03  1.78798430919928E-01
 cg2d: Sum(rhs),rhsMax =  -3.64273084129642E-03  1.78805820554314E-01
 cg2d: Sum(rhs),rhsMax =  -3.64335435918479E-03  1.78813207588837E-01
 cg2d: Sum(rhs),rhsMax =  -3.64397645529552E-03  1.78820592021660E-01
 cg2d: Sum(rhs),rhsMax =  -3.64459712325552E-03  1.78827973850947E-01
 cg2d: Sum(rhs),rhsMax =  -3.64521635795829E-03  1.78835353074894E-01
 cg2d: Sum(rhs),rhsMax =  -3.64583415362562E-03  1.78842729691678E-01
 cg2d: Sum(rhs),rhsMax =  -3.64645050520339E-03  1.78850103699510E-01
 cg2d: Sum(rhs),rhsMax =  -3.64706540640838E-03  1.78857475096603E-01
 cg2d: Sum(rhs),rhsMax =  -3.64767885181490E-03  1.78864843881167E-01
(PID.TID 0000.0001)      cg2d_init_res =   7.64501658963767E-04
(PID.TID 0000.0001)      cg2d_iters(min,last) =      -1      76
(PID.TID 0000.0001)      cg2d_last_res =   9.06687249003969E-08
(PID.TID 0000.0001) // =======================================================
(PID.TID 0000.0001) // Begin MONITOR dynamic field statistics
(PID.TID 0000.0001) // =======================================================
(PID.TID 0000.0001) %MON time_tsnumber                =                 10080
(PID.TID 0000.0001) %MON time_secondsf                =   1.2096000000000E+07
(PID.TID 0000.0001) %MON dynstat_eta_max              =   2.3602070908620E-01
(PID.TID 0000.0001) %MON dynstat_eta_min              =  -8.6068425349730E-02
(PID.TID 0000.0001) %MON dynstat_eta_mean             =   3.2612173116893E-06
(PID.TID 0000.0001) %MON dynstat_eta_sd               =   9.5330297411038E-02
(PID.TID 0000.0001) %MON dynstat_eta_del2             =   2.6616947614328E-05
(PID.TID 0000.0001) %MON dynstat_uvel_max             =   1.3266013168056E-01
(PID.TID 0000.0001) %MON dynstat_uvel_min             =  -8.7530964010299E-02
(PID.TID 0000.0001) %MON dynstat_uvel_mean            =  -7.0980085798392E-08
(PID.TID 0000.0001) %MON dynstat_uvel_sd              =   3.9603652162285E-02
(PID.TID 0000.0001) %MON dynstat_uvel_del2            =   6.4763639022114E-05
(PID.TID 0000.0001) %MON dynstat_vvel_max             =   8.1248439845444E-02
(PID.TID 0000.0001) %MON dynstat_vvel_min             =  -1.0181591881852E-01
(PID.TID 0000.0001) %MON dynstat_vvel_mean            =   1.3581424078420E-07
(PID.TID 0000.0001) %MON dynstat_vvel_sd              =   3.5710051169755E-02
(PID.TID 0000.0001) %MON dynstat_vvel_del2            =   4.0737498182340E-05
(PID.TID 0000.0001) %MON dynstat_wvel_max             =   1.8053025206027E-08
(PID.TID 0000.0001) %MON dynstat_wvel_min             =  -7.9140092479065E-09
(PID.TID 0000.0001) %MON dynstat_wvel_mean            =   6.5745467105040E-21
(PID.TID 0000.0001) %MON dynstat_wvel_sd              =   6.1210287282895E-09
(PID.TID 0000.0001) %MON dynstat_wvel_del2            =   2.4195078591462E-12
(PID.TID 0000.0001) %MON dynstat_theta_max            =   2.0000000000000E+01
(PID.TID 0000.0001) %MON dynstat_theta_min            =   2.0000000000000E+01
(PID.TID 0000.0001) %MON dynstat_theta_mean           =   2.0000000000000E+01
(PID.TID 0000.0001) %MON dynstat_theta_sd             =   3.8014036363165E-13
(PID.TID 0000.0001) %MON dynstat_theta_del2           =   0.0000000000000E+00
(PID.TID 0000.0001) %MON dynstat_salt_max             =   3.0000000000000E+01
(PID.TID 0000.0001) %MON dynstat_salt_min             =   3.0000000000000E+01
(PID.TID 0000.0001) %MON dynstat_salt_mean            =   2.9999999999999E+01
(PID.TID 0000.0001) %MON dynstat_salt_sd              =   5.5777604757167E-13
(PID.TID 0000.0001) %MON dynstat_salt_del2            =   0.0000000000000E+00
(PID.TID 0000.0001) %MON trAdv_CFL_u_max              =   7.9581488788097E-03
(PID.TID 0000.0001) %MON trAdv_CFL_v_max              =   6.0995789834459E-03
(PID.TID 0000.0001) %MON trAdv_CFL_w_max              =   4.7091792394239E-09
(PID.TID 0000.0001) %MON advcfl_uvel_max              =   7.9596079008339E-03
(PID.TID 0000.0001) %MON advcfl_vvel_max              =   6.1089551291114E-03
(PID.TID 0000.0001) %MON advcfl_wvel_max              =   8.6654520988930E-09
(PID.TID 0000.0001) %MON advcfl_W_hf_max              =   0.0000000000000E+00
(PID.TID 0000.0001) %MON pe_b_mean                    =   9.3171951054056E-06
(PID.TID 0000.0001) %MON ke_max                       =   8.8051886289320E-03
(PID.TID 0000.0001) %MON ke_mean                      =   1.3956830510247E-03
(PID.TID 0000.0001) %MON ke_vol                       =   6.8893493896486E+15
(PID.TID 0000.0001) %MON vort_r_min                   =  -1.0187123386365E-06
(PID.TID 0000.0001) %MON vort_r_max                   =   2.8932741893803E-06
(PID.TID 0000.0001) %MON vort_a_mean                  =   1.0600000000000E-04
(PID.TID 0000.0001) %MON vort_a_sd                    =   3.5538932811706E-06
(PID.TID 0000.0001) %MON vort_p_mean                  =   1.1652272308690E-04
(PID.TID 0000.0001) %MON vort_p_sd                    =   4.1786296880754E-05
(PID.TID 0000.0001) %MON surfExpan_theta_mean         =   1.3150661794094E-19
(PID.TID 0000.0001) %MON surfExpan_salt_mean          =   1.9725045300826E-19
(PID.TID 0000.0001) // =======================================================
(PID.TID 0000.0001) // End MONITOR dynamic field statistics
(PID.TID 0000.0001) // =======================================================
 cg2d: Sum(rhs),rhsMax =  -3.64829083620567E-03  1.78872210051441E-01
 cg2d: Sum(rhs),rhsMax =  -3.64890135326646E-03  1.78879573605659E-01
 cg2d: Sum(rhs),rhsMax =  -3.64951039770608E-03  1.78886934542067E-01
 cg2d: Sum(rhs),rhsMax =  -3.65011796374418E-03  1.78894292858931E-01
 cg2d: Sum(rhs),rhsMax =  -3.65072404591008E-03  1.78901648554511E-01
 cg2d: Sum(rhs),rhsMax =  -3.65132863876554E-03  1.78909001627090E-01
 cg2d: Sum(rhs),rhsMax =  -3.65193173621621E-03  1.78916352074952E-01
 cg2d: Sum(rhs),rhsMax =  -3.65253333286565E-03  1.78923699896389E-01
 cg2d: Sum(rhs),rhsMax =  -3.65313342276223E-03  1.78931045089710E-01
 cg2d: Sum(rhs),rhsMax =  -3.65373200018452E-03  1.78938387653230E-01
 cg2d: Sum(rhs),rhsMax =  -3.65432905998541E-03  1.78945727585275E-01
 cg2d: Sum(rhs),rhsMax =  -3.65492459612918E-03  1.78953064884171E-01
 cg2d: Sum(rhs),rhsMax =  -3.65551860293967E-03  1.78960399548265E-01
 cg2d: Sum(rhs),rhsMax =  -3.65611107461858E-03  1.78967731575909E-01
 cg2d: Sum(rhs),rhsMax =  -3.65680285599732E-03  1.78975061521470E-01
 cg2d: Sum(rhs),rhsMax =  -3.65749294816646E-03  1.78982388268269E-01
 cg2d: Sum(rhs),rhsMax =  -3.65818135837852E-03  1.78989712371057E-01
 cg2d: Sum(rhs),rhsMax =  -3.65886805216909E-03  1.78997033832770E-01
 cg2d: Sum(rhs),rhsMax =  -3.65955301535727E-03  1.79004352648788E-01
 cg2d: Sum(rhs),rhsMax =  -3.66023624057192E-03  1.79011668818232E-01
 cg2d: Sum(rhs),rhsMax =  -3.66091772402573E-03  1.79018982339609E-01
 cg2d: Sum(rhs),rhsMax =  -3.66159746296986E-03  1.79026293211103E-01
 cg2d: Sum(rhs),rhsMax =  -3.66227545361118E-03  1.79033601431243E-01
 cg2d: Sum(rhs),rhsMax =  -3.66295168990796E-03  1.79040906998823E-01
 cg2d: Sum(rhs),rhsMax =  -3.66362616459376E-03  1.79048209912599E-01
 cg2d: Sum(rhs),rhsMax =  -3.66429887022679E-03  1.79055510171158E-01
 cg2d: Sum(rhs),rhsMax =  -3.66496979961345E-03  1.79062807772937E-01
 cg2d: Sum(rhs),rhsMax =  -3.66563894639020E-03  1.79070102716302E-01
 cg2d: Sum(rhs),rhsMax =  -3.66630630363554E-03  1.79077394999641E-01
 cg2d: Sum(rhs),rhsMax =  -3.66697186532832E-03  1.79084684621400E-01
 cg2d: Sum(rhs),rhsMax =  -3.66763562555162E-03  1.79091971580082E-01
 cg2d: Sum(rhs),rhsMax =  -3.66829757711267E-03  1.79099255874221E-01
 cg2d: Sum(rhs),rhsMax =  -3.66895771465314E-03  1.79106537502373E-01
 cg2d: Sum(rhs),rhsMax =  -3.66961603075072E-03  1.79113816463098E-01
 cg2d: Sum(rhs),rhsMax =  -3.67027251860131E-03  1.79121092754950E-01
 cg2d: Sum(rhs),rhsMax =  -3.67092717215600E-03  1.79128366376494E-01
 cg2d: Sum(rhs),rhsMax =  -3.67157998498337E-03  1.79135637326304E-01
 cg2d: Sum(rhs),rhsMax =  -3.67223095037543E-03  1.79142905602952E-01
 cg2d: Sum(rhs),rhsMax =  -3.67288006179240E-03  1.79150171205030E-01
 cg2d: Sum(rhs),rhsMax =  -3.67352731314576E-03  1.79157434131128E-01
 cg2d: Sum(rhs),rhsMax =  -3.67417269765111E-03  1.79164694379849E-01
 cg2d: Sum(rhs),rhsMax =  -3.67481620864654E-03  1.79171951949804E-01
 cg2d: Sum(rhs),rhsMax =  -3.67545784001393E-03  1.79179206839618E-01
 cg2d: Sum(rhs),rhsMax =  -3.67609758521110E-03  1.79186459047919E-01
 cg2d: Sum(rhs),rhsMax =  -3.67673543796618E-03  1.79193708573356E-01
 cg2d: Sum(rhs),rhsMax =  -3.67737139132713E-03  1.79200955414570E-01
 cg2d: Sum(rhs),rhsMax =  -3.67800543869446E-03  1.79208199570239E-01
 cg2d: Sum(rhs),rhsMax =  -3.67874270316768E-03  1.79215440610440E-01
 cg2d: Sum(rhs),rhsMax =  -3.67947790116504E-03  1.79222679403628E-01
 cg2d: Sum(rhs),rhsMax =  -3.68021097581047E-03  1.79229915499019E-01
 cg2d: Sum(rhs),rhsMax =  -3.68094192130533E-03  1.79237148900806E-01
 cg2d: Sum(rhs),rhsMax =  -3.68167072324874E-03  1.79244379609464E-01
 cg2d: Sum(rhs),rhsMax =  -3.68239737262990E-03  1.79251607624166E-01
 cg2d: Sum(rhs),rhsMax =  -3.68312186459808E-03  1.79258832943949E-01
 cg2d: Sum(rhs),rhsMax =  -3.68384419596426E-03  1.79266055567420E-01
 cg2d: Sum(rhs),rhsMax =  -3.68456436212015E-03  1.79273275493329E-01
 cg2d: Sum(rhs),rhsMax =  -3.68528235601353E-03  1.79280492720665E-01
 cg2d: Sum(rhs),rhsMax =  -3.68599817037428E-03  1.79287707248427E-01
 cg2d: Sum(rhs),rhsMax =  -3.68671179718206E-03  1.79294919075512E-01
 cg2d: Sum(rhs),rhsMax =  -3.68742322856723E-03  1.79302128200681E-01
 cg2d: Sum(rhs),rhsMax =  -3.68813245723562E-03  1.79309334622639E-01
 cg2d: Sum(rhs),rhsMax =  -3.68883947652290E-03  1.79316538340091E-01
 cg2d: Sum(rhs),rhsMax =  -3.68954427918702E-03  1.79323739351796E-01
 cg2d: Sum(rhs),rhsMax =  -3.69024685925795E-03  1.79330937656563E-01
 cg2d: Sum(rhs),rhsMax =  -3.69094720924988E-03  1.79338133253224E-01
 cg2d: Sum(rhs),rhsMax =  -3.69164532175966E-03  1.79345326140636E-01
 cg2d: Sum(rhs),rhsMax =  -3.69234119050405E-03  1.79352516317664E-01
 cg2d: Sum(rhs),rhsMax =  -3.69303480856634E-03  1.79359703783173E-01
 cg2d: Sum(rhs),rhsMax =  -3.69372616898282E-03  1.79366888536034E-01
 cg2d: Sum(rhs),rhsMax =  -3.69441526434692E-03  1.79374070575126E-01
 cg2d: Sum(rhs),rhsMax =  -3.69510208814644E-03  1.79381249899331E-01
 cg2d: Sum(rhs),rhsMax =  -3.69578663363684E-03  1.79388426507541E-01
(PID.TID 0000.0001)      cg2d_init_res =   7.54230055635713E-04
(PID.TID 0000.0001)      cg2d_iters(min,last) =      -1      74
(PID.TID 0000.0001)      cg2d_last_res =   9.77086067468077E-08
(PID.TID 0000.0001) // =======================================================
(PID.TID 0000.0001) // Begin MONITOR dynamic field statistics
(PID.TID 0000.0001) // =======================================================
(PID.TID 0000.0001) %MON time_tsnumber                =                 10152
(PID.TID 0000.0001) %MON time_secondsf                =   1.2182400000000E+07
(PID.TID 0000.0001) %MON dynstat_eta_max              =   2.3742344436411E-01
(PID.TID 0000.0001) %MON dynstat_eta_min              =  -8.6435958053361E-02
(PID.TID 0000.0001) %MON dynstat_eta_mean             =   3.3139523358114E-06
(PID.TID 0000.0001) %MON dynstat_eta_sd               =   9.5836824823239E-02
(PID.TID 0000.0001) %MON dynstat_eta_del2             =   2.6712669900416E-05
(PID.TID 0000.0001) %MON dynstat_uvel_max             =   1.3315533543995E-01
(PID.TID 0000.0001) %MON dynstat_uvel_min             =  -8.7966633376658E-02
(PID.TID 0000.0001) %MON dynstat_uvel_mean            =  -7.2992982434312E-08
(PID.TID 0000.0001) %MON dynstat_uvel_sd              =   3.9787575735061E-02
(PID.TID 0000.0001) %MON dynstat_uvel_del2            =   6.4859822129952E-05
(PID.TID 0000.0001) %MON dynstat_vvel_max             =   8.1162385736940E-02
(PID.TID 0000.0001) %MON dynstat_vvel_min             =  -1.0232918901618E-01
(PID.TID 0000.0001) %MON dynstat_vvel_mean            =   1.4039705061126E-07
(PID.TID 0000.0001) %MON dynstat_vvel_sd              =   3.5908470994771E-02
(PID.TID 0000.0001) %MON dynstat_vvel_del2            =   4.0786959079104E-05
(PID.TID 0000.0001) %MON dynstat_wvel_max             =   1.8055929632392E-08
(PID.TID 0000.0001) %MON dynstat_wvel_min             =  -8.1784696516115E-09
(PID.TID 0000.0001) %MON dynstat_wvel_mean            =  -3.8894535868571E-21
(PID.TID 0000.0001) %MON dynstat_wvel_sd              =   6.1011944324754E-09
(PID.TID 0000.0001) %MON dynstat_wvel_del2            =   2.3951490596096E-12
(PID.TID 0000.0001) %MON dynstat_theta_max            =   2.0000000000000E+01
(PID.TID 0000.0001) %MON dynstat_theta_min            =   2.0000000000000E+01
(PID.TID 0000.0001) %MON dynstat_theta_mean           =   2.0000000000000E+01
(PID.TID 0000.0001) %MON dynstat_theta_sd             =   3.8014036363165E-13
(PID.TID 0000.0001) %MON dynstat_theta_del2           =   0.0000000000000E+00
(PID.TID 0000.0001) %MON dynstat_salt_max             =   3.0000000000000E+01
(PID.TID 0000.0001) %MON dynstat_salt_min             =   3.0000000000000E+01
(PID.TID 0000.0001) %MON dynstat_salt_mean            =   2.9999999999999E+01
(PID.TID 0000.0001) %MON dynstat_salt_sd              =   5.5777604757167E-13
(PID.TID 0000.0001) %MON dynstat_salt_del2            =   0.0000000000000E+00
(PID.TID 0000.0001) %MON trAdv_CFL_u_max              =   7.9878580766863E-03
(PID.TID 0000.0001) %MON trAdv_CFL_v_max              =   6.1303467346647E-03
(PID.TID 0000.0001) %MON trAdv_CFL_w_max              =   4.7075669335728E-09
(PID.TID 0000.0001) %MON advcfl_uvel_max              =   7.9893201263972E-03
(PID.TID 0000.0001) %MON advcfl_vvel_max              =   6.1397513409710E-03
(PID.TID 0000.0001) %MON advcfl_wvel_max              =   8.6668462235481E-09
(PID.TID 0000.0001) %MON advcfl_W_hf_max              =   0.0000000000000E+00
(PID.TID 0000.0001) %MON pe_b_mean                    =   9.4164700037353E-06
(PID.TID 0000.0001) %MON ke_max                       =   8.8717588741778E-03
(PID.TID 0000.0001) %MON ke_mean                      =   1.4098243669173E-03
(PID.TID 0000.0001) %MON ke_vol                       =   6.8893493896486E+15
(PID.TID 0000.0001) %MON vort_r_min                   =  -1.0130765987456E-06
(PID.TID 0000.0001) %MON vort_r_max                   =   2.9028092906544E-06
(PID.TID 0000.0001) %MON vort_a_mean                  =   1.0600000000000E-04
(PID.TID 0000.0001) %MON vort_a_sd                    =   3.5541293666955E-06
(PID.TID 0000.0001) %MON vort_p_mean                  =   1.1652272308690E-04
(PID.TID 0000.0001) %MON vort_p_sd                    =   4.1786390435990E-05
(PID.TID 0000.0001) %MON surfExpan_theta_mean         =  -7.7716953860040E-20
(PID.TID 0000.0001) %MON surfExpan_salt_mean          =  -1.1657511499329E-19
(PID.TID 0000.0001) // =======================================================
(PID.TID 0000.0001) // End MONITOR dynamic field statistics
(PID.TID 0000.0001) // =======================================================
 cg2d: Sum(rhs),rhsMax =  -3.69646889427723E-03  1.79395600398659E-01
 cg2d: Sum(rhs),rhsMax =  -3.69714886259479E-03  1.79402771571593E-01
 cg2d: Sum(rhs),rhsMax =  -3.69782653299771E-03  1.79409940025252E-01
 cg2d: Sum(rhs),rhsMax =  -3.69850189783558E-03  1.79417105758571E-01
 cg2d: Sum(rhs),rhsMax =  -3.69917495048225E-03  1.79424268770488E-01
 cg2d: Sum(rhs),rhsMax =  -3.69984568443876E-03  1.79431429059943E-01
 cg2d: Sum(rhs),rhsMax =  -3.70051409314564E-03  1.79438586625904E-01
 cg2d: Sum(rhs),rhsMax =  -3.70118016994082E-03  1.79445741467335E-01
 cg2d: Sum(rhs),rhsMax =  -3.70184390861527E-03  1.79452893583213E-01
 cg2d: Sum(rhs),rhsMax =  -3.70250530209186E-03  1.79460042972525E-01
 cg2d: Sum(rhs),rhsMax =  -3.70316434429598E-03  1.79467189634262E-01
 cg2d: Sum(rhs),rhsMax =  -3.70382102869351E-03  1.79474333567432E-01
 cg2d: Sum(rhs),rhsMax =  -3.70447534857508E-03  1.79481474771042E-01
 cg2d: Sum(rhs),rhsMax =  -3.70512729778314E-03  1.79488613244111E-01
 cg2d: Sum(rhs),rhsMax =  -3.70577687004802E-03  1.79495748985676E-01
 cg2d: Sum(rhs),rhsMax =  -3.70642405886308E-03  1.79502881994765E-01
 cg2d: Sum(rhs),rhsMax =  -3.70706885821194E-03  1.79510012270436E-01
 cg2d: Sum(rhs),rhsMax =  -3.70771126121919E-03  1.79517139811744E-01
 cg2d: Sum(rhs),rhsMax =  -3.70835126269179E-03  1.79524264617755E-01
 cg2d: Sum(rhs),rhsMax =  -3.70898885556043E-03  1.79531386687546E-01
 cg2d: Sum(rhs),rhsMax =  -3.70962403404245E-03  1.79538506020202E-01
 cg2d: Sum(rhs),rhsMax =  -3.71025679234955E-03  1.79545622614816E-01
 cg2d: Sum(rhs),rhsMax =  -3.71088712404402E-03  1.79552736470495E-01
 cg2d: Sum(rhs),rhsMax =  -3.71151502314583E-03  1.79559847586345E-01
 cg2d: Sum(rhs),rhsMax =  -3.71214048386427E-03  1.79566955961496E-01
 cg2d: Sum(rhs),rhsMax =  -3.71276350051804E-03  1.79574061595071E-01
 cg2d: Sum(rhs),rhsMax =  -3.71338406696766E-03  1.79581164486206E-01
 cg2d: Sum(rhs),rhsMax =  -3.71400217761625E-03  1.79588264634061E-01
 cg2d: Sum(rhs),rhsMax =  -3.71461782617268E-03  1.79595362037784E-01
 cg2d: Sum(rhs),rhsMax =  -3.71523100768523E-03  1.79602456696546E-01
 cg2d: Sum(rhs),rhsMax =  -3.71584171605507E-03  1.79609548609517E-01
 cg2d: Sum(rhs),rhsMax =  -3.71644994579986E-03  1.79616637775892E-01
 cg2d: Sum(rhs),rhsMax =  -3.71705569123681E-03  1.79623724194854E-01
 cg2d: Sum(rhs),rhsMax =  -3.71765894717487E-03  1.79630807865615E-01
 cg2d: Sum(rhs),rhsMax =  -3.71825970842236E-03  1.79637888787380E-01
 cg2d: Sum(rhs),rhsMax =  -3.71885796871248E-03  1.79644966959372E-01
 cg2d: Sum(rhs),rhsMax =  -3.71945372380579E-03  1.79652042380818E-01
 cg2d: Sum(rhs),rhsMax =  -3.72004696714004E-03  1.79659115050964E-01
 cg2d: Sum(rhs),rhsMax =  -3.72063769442570E-03  1.79666184969051E-01
 cg2d: Sum(rhs),rhsMax =  -3.72122590045894E-03  1.79673252134337E-01
 cg2d: Sum(rhs),rhsMax =  -3.72181158027994E-03  1.79680316546087E-01
 cg2d: Sum(rhs),rhsMax =  -3.72239472832182E-03  1.79687378203578E-01
 cg2d: Sum(rhs),rhsMax =  -3.72297534023263E-03  1.79694437106094E-01
 cg2d: Sum(rhs),rhsMax =  -3.72355341063427E-03  1.79701493252925E-01
 cg2d: Sum(rhs),rhsMax =  -3.72412893481884E-03  1.79708546643374E-01
 cg2d: Sum(rhs),rhsMax =  -3.72470190851524E-03  1.79715597276752E-01
 cg2d: Sum(rhs),rhsMax =  -3.72527232603790E-03  1.79722645152376E-01
 cg2d: Sum(rhs),rhsMax =  -3.72584018340324E-03  1.79729690269578E-01
 cg2d: Sum(rhs),rhsMax =  -3.72640547620572E-03  1.79736732627692E-01
 cg2d: Sum(rhs),rhsMax =  -3.72696819973221E-03  1.79743772226067E-01
 cg2d: Sum(rhs),rhsMax =  -3.72752834952521E-03  1.79750809064057E-01
 cg2d: Sum(rhs),rhsMax =  -3.72808592131364E-03  1.79757843141022E-01
 cg2d: Sum(rhs),rhsMax =  -3.72864091070945E-03  1.79764874456339E-01
 cg2d: Sum(rhs),rhsMax =  -3.72919331361106E-03  1.79771903009391E-01
 cg2d: Sum(rhs),rhsMax =  -3.72974312602080E-03  1.79778928799569E-01
 cg2d: Sum(rhs),rhsMax =  -3.73029034349988E-03  1.79785951826272E-01
 cg2d: Sum(rhs),rhsMax =  -3.73083496256749E-03  1.79792972088908E-01
 cg2d: Sum(rhs),rhsMax =  -3.73137697923388E-03  1.79799989586889E-01
 cg2d: Sum(rhs),rhsMax =  -3.73191638930028E-03  1.79807004319650E-01
 cg2d: Sum(rhs),rhsMax =  -3.73245318932480E-03  1.79814016286622E-01
 cg2d: Sum(rhs),rhsMax =  -3.73298737567081E-03  1.79821025487249E-01
 cg2d: Sum(rhs),rhsMax =  -3.73351894493837E-03  1.79828031920985E-01
 cg2d: Sum(rhs),rhsMax =  -3.73404789338422E-03  1.79835035587291E-01
 cg2d: Sum(rhs),rhsMax =  -3.73457421768507E-03  1.79842036485639E-01
 cg2d: Sum(rhs),rhsMax =  -3.73509791445353E-03  1.79849034615505E-01
 cg2d: Sum(rhs),rhsMax =  -3.73561898095184E-03  1.79856029976379E-01
 cg2d: Sum(rhs),rhsMax =  -3.73613741362851E-03  1.79863022567756E-01
 cg2d: Sum(rhs),rhsMax =  -3.73665320902215E-03  1.79870012389148E-01
 cg2d: Sum(rhs),rhsMax =  -3.73716636484921E-03  1.79876999440066E-01
 cg2d: Sum(rhs),rhsMax =  -3.73767687823353E-03  1.79883983720030E-01
 cg2d: Sum(rhs),rhsMax =  -3.73818474618490E-03  1.79890965228575E-01
 cg2d: Sum(rhs),rhsMax =  -3.73868996609878E-03  1.79897943965243E-01
(PID.TID 0000.0001)      cg2d_init_res =   7.43992087197610E-04
(PID.TID 0000.0001)      cg2d_iters(min,last) =      -1      74
(PID.TID 0000.0001)      cg2d_last_res =   9.04450981570726E-08
(PID.TID 0000.0001) // =======================================================
(PID.TID 0000.0001) // Begin MONITOR dynamic field statistics
(PID.TID 0000.0001) // =======================================================
(PID.TID 0000.0001) %MON time_tsnumber                =                 10224
(PID.TID 0000.0001) %MON time_secondsf                =   1.2268800000000E+07
(PID.TID 0000.0001) %MON dynstat_eta_max              =   2.3881992619136E-01
(PID.TID 0000.0001) %MON dynstat_eta_min              =  -8.6788124312980E-02
(PID.TID 0000.0001) %MON dynstat_eta_mean             =   3.3617722052298E-06
(PID.TID 0000.0001) %MON dynstat_eta_sd               =   9.6341405826559E-02
(PID.TID 0000.0001) %MON dynstat_eta_del2             =   2.6809983990476E-05
(PID.TID 0000.0001) %MON dynstat_uvel_max             =   1.3364863671074E-01
(PID.TID 0000.0001) %MON dynstat_uvel_min             =  -8.8391689278872E-02
(PID.TID 0000.0001) %MON dynstat_uvel_mean            =  -7.4036366715310E-08
(PID.TID 0000.0001) %MON dynstat_uvel_sd              =   3.9971347283500E-02
(PID.TID 0000.0001) %MON dynstat_uvel_del2            =   6.4959568996304E-05
(PID.TID 0000.0001) %MON dynstat_vvel_max             =   8.1053250732269E-02
(PID.TID 0000.0001) %MON dynstat_vvel_min             =  -1.0282852409756E-01
(PID.TID 0000.0001) %MON dynstat_vvel_mean            =   1.4556306190790E-07
(PID.TID 0000.0001) %MON dynstat_vvel_sd              =   3.6105079763468E-02
(PID.TID 0000.0001) %MON dynstat_vvel_del2            =   4.0833533081218E-05
(PID.TID 0000.0001) %MON dynstat_wvel_max             =   1.8091464807512E-08
(PID.TID 0000.0001) %MON dynstat_wvel_min             =  -8.4308218077058E-09
(PID.TID 0000.0001) %MON dynstat_wvel_mean            =  -5.0860535338870E-21
(PID.TID 0000.0001) %MON dynstat_wvel_sd              =   6.0826887987311E-09
(PID.TID 0000.0001) %MON dynstat_wvel_del2            =   2.3706987089833E-12
(PID.TID 0000.0001) %MON dynstat_theta_max            =   2.0000000000000E+01
(PID.TID 0000.0001) %MON dynstat_theta_min            =   2.0000000000000E+01
(PID.TID 0000.0001) %MON dynstat_theta_mean           =   2.0000000000000E+01
(PID.TID 0000.0001) %MON dynstat_theta_sd             =   3.8014036363165E-13
(PID.TID 0000.0001) %MON dynstat_theta_del2           =   0.0000000000000E+00
(PID.TID 0000.0001) %MON dynstat_salt_max             =   3.0000000000000E+01
(PID.TID 0000.0001) %MON dynstat_salt_min             =   3.0000000000000E+01
(PID.TID 0000.0001) %MON dynstat_salt_mean            =   2.9999999999999E+01
(PID.TID 0000.0001) %MON dynstat_salt_sd              =   5.5777604757167E-13
(PID.TID 0000.0001) %MON dynstat_salt_del2            =   0.0000000000000E+00
(PID.TID 0000.0001) %MON trAdv_CFL_u_max              =   8.0174545219435E-03
(PID.TID 0000.0001) %MON trAdv_CFL_v_max              =   6.1612482150934E-03
(PID.TID 0000.0001) %MON trAdv_CFL_w_max              =   4.7140832731263E-09
(PID.TID 0000.0001) %MON advcfl_uvel_max              =   8.0189182026445E-03
(PID.TID 0000.0001) %MON advcfl_vvel_max              =   6.1697114458537E-03
(PID.TID 0000.0001) %MON advcfl_wvel_max              =   8.6839031076059E-09
(PID.TID 0000.0001) %MON advcfl_W_hf_max              =   0.0000000000000E+00
(PID.TID 0000.0001) %MON pe_b_mean                    =   9.5158864835793E-06
(PID.TID 0000.0001) %MON ke_max                       =   8.9383913681239E-03
(PID.TID 0000.0001) %MON ke_mean                      =   1.4239673826718E-03
(PID.TID 0000.0001) %MON ke_vol                       =   6.8893493896486E+15
(PID.TID 0000.0001) %MON vort_r_min                   =  -1.0078511932009E-06
(PID.TID 0000.0001) %MON vort_r_max                   =   2.9122477509036E-06
(PID.TID 0000.0001) %MON vort_a_mean                  =   1.0600000000000E-04
(PID.TID 0000.0001) %MON vort_a_sd                    =   3.5543672240608E-06
(PID.TID 0000.0001) %MON vort_p_mean                  =   1.1652272308690E-04
(PID.TID 0000.0001) %MON vort_p_sd                    =   4.1786480103213E-05
(PID.TID 0000.0001) %MON surfExpan_theta_mean         =  -1.0172192964496E-19
(PID.TID 0000.0001) %MON surfExpan_salt_mean          =  -1.5258731562224E-19
(PID.TID 0000.0001) // =======================================================
(PID.TID 0000.0001) // End MONITOR dynamic field statistics
(PID.TID 0000.0001) // =======================================================
 cg2d: Sum(rhs),rhsMax =  -3.73919253525317E-03  1.79904919929581E-01
 cg2d: Sum(rhs),rhsMax =  -3.73969245141169E-03  1.79911893121152E-01
 cg2d: Sum(rhs),rhsMax =  -3.74018971216709E-03  1.79918863539522E-01
 cg2d: Sum(rhs),rhsMax =  -3.74068431493690E-03  1.79925831184264E-01
 cg2d: Sum(rhs),rhsMax =  -3.74117625763321E-03  1.79932796054963E-01
 cg2d: Sum(rhs),rhsMax =  -3.74166553842062E-03  1.79939758151217E-01
 cg2d: Sum(rhs),rhsMax =  -3.74215215483403E-03  1.79946717472622E-01
 cg2d: Sum(rhs),rhsMax =  -3.74263610514962E-03  1.79953674018794E-01
 cg2d: Sum(rhs),rhsMax =  -3.74311738809137E-03  1.79960627789355E-01
 cg2d: Sum(rhs),rhsMax =  -3.74359600134757E-03  1.79967578783925E-01
 cg2d: Sum(rhs),rhsMax =  -3.74407194369573E-03  1.79974527002147E-01
 cg2d: Sum(rhs),rhsMax =  -3.74454521387273E-03  1.79981472443665E-01
 cg2d: Sum(rhs),rhsMax =  -3.74501581000403E-03  1.79988415108133E-01
 cg2d: Sum(rhs),rhsMax =  -3.74548373069066E-03  1.79995354995216E-01
 cg2d: Sum(rhs),rhsMax =  -3.74594897575941E-03  1.80002292104583E-01
 cg2d: Sum(rhs),rhsMax =  -3.74641154316088E-03  1.80009226435920E-01
 cg2d: Sum(rhs),rhsMax =  -3.74687143253060E-03  1.80016157988913E-01
 cg2d: Sum(rhs),rhsMax =  -3.74732864293212E-03  1.80023086763258E-01
 cg2d: Sum(rhs),rhsMax =  -3.74778317368944E-03  1.80030012758665E-01
 cg2d: Sum(rhs),rhsMax =  -3.74823502432928E-03  1.80036935974845E-01
 cg2d: Sum(rhs),rhsMax =  -3.74868419386640E-03  1.80043856411526E-01
 cg2d: Sum(rhs),rhsMax =  -3.74913068265552E-03  1.80050774068436E-01
 cg2d: Sum(rhs),rhsMax =  -3.74957448992419E-03  1.80057688945324E-01
 cg2d: Sum(rhs),rhsMax =  -3.75001561579828E-03  1.80064601041930E-01
 cg2d: Sum(rhs),rhsMax =  -3.75045406033338E-03  1.80071510358016E-01
 cg2d: Sum(rhs),rhsMax =  -3.75088982314787E-03  1.80078416893351E-01
 cg2d: Sum(rhs),rhsMax =  -3.75132290536950E-03  1.80085320647710E-01
 cg2d: Sum(rhs),rhsMax =  -3.75175330690983E-03  1.80092221620875E-01
 cg2d: Sum(rhs),rhsMax =  -3.75218102814158E-03  1.80099119812644E-01
 cg2d: Sum(rhs),rhsMax =  -3.75260606988397E-03  1.80106015222807E-01
 cg2d: Sum(rhs),rhsMax =  -3.75302843236275E-03  1.80112907851183E-01
 cg2d: Sum(rhs),rhsMax =  -3.75344811717654E-03  1.80119797697590E-01
 cg2d: Sum(rhs),rhsMax =  -3.75386512467491E-03  1.80126684761849E-01
 cg2d: Sum(rhs),rhsMax =  -3.75427945625284E-03  1.80133569043803E-01
 cg2d: Sum(rhs),rhsMax =  -3.75469111288837E-03  1.80140450543288E-01
 cg2d: Sum(rhs),rhsMax =  -3.75510009641974E-03  1.80147329260161E-01
 cg2d: Sum(rhs),rhsMax =  -3.75550640811624E-03  1.80154205194284E-01
 cg2d: Sum(rhs),rhsMax =  -3.75591004971235E-03  1.80161078345523E-01
 cg2d: Sum(rhs),rhsMax =  -3.75631102276371E-03  1.80167948713760E-01
 cg2d: Sum(rhs),rhsMax =  -3.75670932914951E-03  1.80174816298877E-01
 cg2d: Sum(rhs),rhsMax =  -3.75710497115150E-03  1.80181681100771E-01
 cg2d: Sum(rhs),rhsMax =  -3.75749795040667E-03  1.80188543119347E-01
 cg2d: Sum(rhs),rhsMax =  -3.75788826951103E-03  1.80195402354514E-01
 cg2d: Sum(rhs),rhsMax =  -3.75827593122615E-03  1.80202258806193E-01
 cg2d: Sum(rhs),rhsMax =  -3.75866093752508E-03  1.80209112474315E-01
 cg2d: Sum(rhs),rhsMax =  -3.75904329143086E-03  1.80215963358816E-01
 cg2d: Sum(rhs),rhsMax =  -3.75942299550932E-03  1.80222811459639E-01
 cg2d: Sum(rhs),rhsMax =  -3.75980005335206E-03  1.80229656776738E-01
 cg2d: Sum(rhs),rhsMax =  -3.76017446704826E-03  1.80236499310081E-01
 cg2d: Sum(rhs),rhsMax =  -3.76054624034314E-03  1.80243339059636E-01
 cg2d: Sum(rhs),rhsMax =  -3.76091537642368E-03  1.80250176025380E-01
 cg2d: Sum(rhs),rhsMax =  -3.76128187930273E-03  1.80257010207304E-01
 cg2d: Sum(rhs),rhsMax =  -3.76164575263596E-03  1.80263841605403E-01
 cg2d: Sum(rhs),rhsMax =  -3.76200699969139E-03  1.80270670219677E-01
 cg2d: Sum(rhs),rhsMax =  -3.76236562425630E-03  1.80277496050146E-01
 cg2d: Sum(rhs),rhsMax =  -3.76272163089274E-03  1.80284319096831E-01
 cg2d: Sum(rhs),rhsMax =  -3.76307502361159E-03  1.80291139359755E-01
 cg2d: Sum(rhs),rhsMax =  -3.76342580688581E-03  1.80297956838961E-01
 cg2d: Sum(rhs),rhsMax =  -3.76377398487437E-03  1.80304771534493E-01
 cg2d: Sum(rhs),rhsMax =  -3.76411956269754E-03  1.80311583446408E-01
 cg2d: Sum(rhs),rhsMax =  -3.76446254446844E-03  1.80318392574766E-01
 cg2d: Sum(rhs),rhsMax =  -3.76480293581467E-03  1.80325198919641E-01
 cg2d: Sum(rhs),rhsMax =  -3.76514074163925E-03  1.80332002481108E-01
 cg2d: Sum(rhs),rhsMax =  -3.76547596697026E-03  1.80338803259257E-01
 cg2d: Sum(rhs),rhsMax =  -3.76580861695876E-03  1.80345601254188E-01
 cg2d: Sum(rhs),rhsMax =  -3.76613869730908E-03  1.80352396466002E-01
 cg2d: Sum(rhs),rhsMax =  -3.76646621358467E-03  1.80359188894811E-01
 cg2d: Sum(rhs),rhsMax =  -3.76679117152670E-03  1.80365978540741E-01
 cg2d: Sum(rhs),rhsMax =  -3.76711357737097E-03  1.80372765403909E-01
 cg2d: Sum(rhs),rhsMax =  -3.76743343670820E-03  1.80379549484468E-01
 cg2d: Sum(rhs),rhsMax =  -3.76775075634473E-03  1.80386330782552E-01
 cg2d: Sum(rhs),rhsMax =  -3.76806554202879E-03  1.80393109298320E-01
(PID.TID 0000.0001)      cg2d_init_res =   7.33924254942227E-04
(PID.TID 0000.0001)      cg2d_iters(min,last) =      -1      74
(PID.TID 0000.0001)      cg2d_last_res =   8.32762002282824E-08
(PID.TID 0000.0001) // =======================================================
(PID.TID 0000.0001) // Begin MONITOR dynamic field statistics
(PID.TID 0000.0001) // =======================================================
(PID.TID 0000.0001) %MON time_tsnumber                =                 10296
(PID.TID 0000.0001) %MON time_secondsf                =   1.2355200000000E+07
(PID.TID 0000.0001) %MON dynstat_eta_max              =   2.4021000282948E-01
(PID.TID 0000.0001) %MON dynstat_eta_min              =  -8.7124663948364E-02
(PID.TID 0000.0001) %MON dynstat_eta_mean             =   3.3973329159217E-06
(PID.TID 0000.0001) %MON dynstat_eta_sd               =   9.6844009486562E-02
(PID.TID 0000.0001) %MON dynstat_eta_del2             =   2.6908724859506E-05
(PID.TID 0000.0001) %MON dynstat_uvel_max             =   1.3413843645742E-01
(PID.TID 0000.0001) %MON dynstat_uvel_min             =  -8.8811105084996E-02
(PID.TID 0000.0001) %MON dynstat_uvel_mean            =  -7.3899583802347E-08
(PID.TID 0000.0001) %MON dynstat_uvel_sd              =   4.0155368648489E-02
(PID.TID 0000.0001) %MON dynstat_uvel_del2            =   6.5062804047273E-05
(PID.TID 0000.0001) %MON dynstat_vvel_max             =   8.0926061151752E-02
(PID.TID 0000.0001) %MON dynstat_vvel_min             =  -1.0333459042892E-01
(PID.TID 0000.0001) %MON dynstat_vvel_mean            =   1.5114033099622E-07
(PID.TID 0000.0001) %MON dynstat_vvel_sd              =   3.6299384492060E-02
(PID.TID 0000.0001) %MON dynstat_vvel_del2            =   4.0877033175531E-05
(PID.TID 0000.0001) %MON dynstat_wvel_max             =   1.8133322744397E-08
(PID.TID 0000.0001) %MON dynstat_wvel_min             =  -8.6532090808032E-09
(PID.TID 0000.0001) %MON dynstat_wvel_mean            =  -1.0805436987640E-20
(PID.TID 0000.0001) %MON dynstat_wvel_sd              =   6.0650421380108E-09
(PID.TID 0000.0001) %MON dynstat_wvel_del2            =   2.3459159805263E-12
(PID.TID 0000.0001) %MON dynstat_theta_max            =   2.0000000000000E+01
(PID.TID 0000.0001) %MON dynstat_theta_min            =   2.0000000000000E+01
(PID.TID 0000.0001) %MON dynstat_theta_mean           =   2.0000000000000E+01
(PID.TID 0000.0001) %MON dynstat_theta_sd             =   3.8014036363165E-13
(PID.TID 0000.0001) %MON dynstat_theta_del2           =   0.0000000000000E+00
(PID.TID 0000.0001) %MON dynstat_salt_max             =   3.0000000000000E+01
(PID.TID 0000.0001) %MON dynstat_salt_min             =   3.0000000000000E+01
(PID.TID 0000.0001) %MON dynstat_salt_mean            =   2.9999999999999E+01
(PID.TID 0000.0001) %MON dynstat_salt_sd              =   5.5777604757167E-13
(PID.TID 0000.0001) %MON dynstat_salt_del2            =   0.0000000000000E+00
(PID.TID 0000.0001) %MON trAdv_CFL_u_max              =   8.0468421845254E-03
(PID.TID 0000.0001) %MON trAdv_CFL_v_max              =   6.1915884096673E-03
(PID.TID 0000.0001) %MON trAdv_CFL_w_max              =   4.7250534148911E-09
(PID.TID 0000.0001) %MON advcfl_uvel_max              =   8.0483061874453E-03
(PID.TID 0000.0001) %MON advcfl_vvel_max              =   6.2000754257353E-03
(PID.TID 0000.0001) %MON advcfl_wvel_max              =   8.7039949173108E-09
(PID.TID 0000.0001) %MON advcfl_W_hf_max              =   0.0000000000000E+00
(PID.TID 0000.0001) %MON pe_b_mean                    =   9.6154323606304E-06
(PID.TID 0000.0001) %MON ke_max                       =   9.0048582222658E-03
(PID.TID 0000.0001) %MON ke_mean                      =   1.4381092406573E-03
(PID.TID 0000.0001) %MON ke_vol                       =   6.8893493896486E+15
(PID.TID 0000.0001) %MON vort_r_min                   =  -1.0030934805497E-06
(PID.TID 0000.0001) %MON vort_r_max                   =   2.9215634722425E-06
(PID.TID 0000.0001) %MON vort_a_mean                  =   1.0600000000000E-04
(PID.TID 0000.0001) %MON vort_a_sd                    =   3.5546064676101E-06
(PID.TID 0000.0001) %MON vort_p_mean                  =   1.1652272308690E-04
(PID.TID 0000.0001) %MON vort_p_sd                    =   4.1786566372799E-05
(PID.TID 0000.0001) %MON surfExpan_theta_mean         =  -2.1610604663793E-19
(PID.TID 0000.0001) %MON surfExpan_salt_mean          =  -3.2415780676982E-19
(PID.TID 0000.0001) // =======================================================
(PID.TID 0000.0001) // End MONITOR dynamic field statistics
(PID.TID 0000.0001) // =======================================================
 cg2d: Sum(rhs),rhsMax =  -3.76837780032054E-03  1.80399885031933E-01
 cg2d: Sum(rhs),rhsMax =  -3.76868753822769E-03  1.80406657983561E-01
 cg2d: Sum(rhs),rhsMax =  -3.76899476197710E-03  1.80413428153384E-01
 cg2d: Sum(rhs),rhsMax =  -3.76929947951226E-03  1.80420195541584E-01
 cg2d: Sum(rhs),rhsMax =  -3.76960169658630E-03  1.80426960148363E-01
 cg2d: Sum(rhs),rhsMax =  -3.76990142125696E-03  1.80433721973920E-01
 cg2d: Sum(rhs),rhsMax =  -3.77019866087870E-03  1.80440481018471E-01
 cg2d: Sum(rhs),rhsMax =  -3.77049342270062E-03  1.80447237282226E-01
 cg2d: Sum(rhs),rhsMax =  -3.77078571454061E-03  1.80453990765419E-01
 cg2d: Sum(rhs),rhsMax =  -3.77107554410253E-03  1.80460741468288E-01
 cg2d: Sum(rhs),rhsMax =  -3.77136291930782E-03  1.80467489391066E-01
 cg2d: Sum(rhs),rhsMax =  -3.77164784768929E-03  1.80474234534019E-01
 cg2d: Sum(rhs),rhsMax =  -3.77193033834131E-03  1.80480976897396E-01
 cg2d: Sum(rhs),rhsMax =  -3.77221039924079E-03  1.80487716481475E-01
 cg2d: Sum(rhs),rhsMax =  -3.77248803878056E-03  1.80494453286525E-01
 cg2d: Sum(rhs),rhsMax =  -3.77276326586096E-03  1.80501187312834E-01
 cg2d: Sum(rhs),rhsMax =  -3.77303608883580E-03  1.80507918560693E-01
 cg2d: Sum(rhs),rhsMax =  -3.77330651756253E-03  1.80514647030401E-01
 cg2d: Sum(rhs),rhsMax =  -3.77357456003636E-03  1.80521372722269E-01
 cg2d: Sum(rhs),rhsMax =  -3.77384022580810E-03  1.80528095636610E-01
 cg2d: Sum(rhs),rhsMax =  -3.77410352434189E-03  1.80534815773755E-01
 cg2d: Sum(rhs),rhsMax =  -3.77436446494534E-03  1.80541533134030E-01
 cg2d: Sum(rhs),rhsMax =  -3.77462305765138E-03  1.80548247717785E-01
 cg2d: Sum(rhs),rhsMax =  -3.77487931197978E-03  1.80554959525358E-01
 cg2d: Sum(rhs),rhsMax =  -3.77520985334072E-03  1.80561668443832E-01
 cg2d: Sum(rhs),rhsMax =  -3.77553794588890E-03  1.80568374682888E-01
 cg2d: Sum(rhs),rhsMax =  -3.77586361813120E-03  1.80575078167756E-01
 cg2d: Sum(rhs),rhsMax =  -3.77618686996337E-03  1.80581778872819E-01
 cg2d: Sum(rhs),rhsMax =  -3.77650770886576E-03  1.80588476802134E-01
 cg2d: Sum(rhs),rhsMax =  -3.77682614518487E-03  1.80595171956993E-01
 cg2d: Sum(rhs),rhsMax =  -3.77714219083760E-03  1.80601864338358E-01
 cg2d: Sum(rhs),rhsMax =  -3.77745585974044E-03  1.80608553946679E-01
 cg2d: Sum(rhs),rhsMax =  -3.77776716538625E-03  1.80615240782259E-01
 cg2d: Sum(rhs),rhsMax =  -3.77807612037328E-03  1.80621924845519E-01
 cg2d: Sum(rhs),rhsMax =  -3.77838273680722E-03  1.80628606136962E-01
 cg2d: Sum(rhs),rhsMax =  -3.77868702697527E-03  1.80635284657099E-01
 cg2d: Sum(rhs),rhsMax =  -3.77898900292367E-03  1.80641960406388E-01
 cg2d: Sum(rhs),rhsMax =  -3.77928867720615E-03  1.80648633385269E-01
 cg2d: Sum(rhs),rhsMax =  -3.77958606333000E-03  1.80655303594168E-01
 cg2d: Sum(rhs),rhsMax =  -3.77988117372898E-03  1.80661971033546E-01
 cg2d: Sum(rhs),rhsMax =  -3.78017402177544E-03  1.80668635703877E-01
 cg2d: Sum(rhs),rhsMax =  -3.78046462117477E-03  1.80675297605655E-01
 cg2d: Sum(rhs),rhsMax =  -3.78075298440472E-03  1.80681956739392E-01
 cg2d: Sum(rhs),rhsMax =  -3.78103912581034E-03  1.80688613105593E-01
 cg2d: Sum(rhs),rhsMax =  -3.78132305894771E-03  1.80695266704783E-01
 cg2d: Sum(rhs),rhsMax =  -3.78160479729709E-03  1.80701917537484E-01
 cg2d: Sum(rhs),rhsMax =  -3.78188435442110E-03  1.80708565604230E-01
 cg2d: Sum(rhs),rhsMax =  -3.78216174479297E-03  1.80715210905559E-01
 cg2d: Sum(rhs),rhsMax =  -3.78243698188381E-03  1.80721853442018E-01
 cg2d: Sum(rhs),rhsMax =  -3.78271008079794E-03  1.80728493214158E-01
 cg2d: Sum(rhs),rhsMax =  -3.78298105504181E-03  1.80735130222540E-01
 cg2d: Sum(rhs),rhsMax =  -3.78324991942566E-03  1.80741764467736E-01
 cg2d: Sum(rhs),rhsMax =  -3.78351668812431E-03  1.80748395950318E-01
 cg2d: Sum(rhs),rhsMax =  -3.78378137640591E-03  1.80755024670873E-01
 cg2d: Sum(rhs),rhsMax =  -3.78404399850588E-03  1.80761650629997E-01
 cg2d: Sum(rhs),rhsMax =  -3.78430456958745E-03  1.80768273828285E-01
 cg2d: Sum(rhs),rhsMax =  -3.78456310421588E-03  1.80774894266349E-01
 cg2d: Sum(rhs),rhsMax =  -3.78481961777493E-03  1.80781511944809E-01
 cg2d: Sum(rhs),rhsMax =  -3.78507412534072E-03  1.80788126864283E-01
 cg2d: Sum(rhs),rhsMax =  -3.78532664174583E-03  1.80794739025407E-01
 cg2d: Sum(rhs),rhsMax =  -3.78557718298757E-03  1.80801348428822E-01
 cg2d: Sum(rhs),rhsMax =  -3.78582576436183E-03  1.80807955075166E-01
 cg2d: Sum(rhs),rhsMax =  -3.78607240106961E-03  1.80814558965107E-01
 cg2d: Sum(rhs),rhsMax =  -3.78631710856231E-03  1.80821160099289E-01
 cg2d: Sum(rhs),rhsMax =  -3.78655990306629E-03  1.80827758478399E-01
 cg2d: Sum(rhs),rhsMax =  -3.78680080039027E-03  1.80834354103104E-01
 cg2d: Sum(rhs),rhsMax =  -3.78703981584150E-03  1.80840946974096E-01
 cg2d: Sum(rhs),rhsMax =  -3.78727696574279E-03  1.80847537092058E-01
 cg2d: Sum(rhs),rhsMax =  -3.78751226616774E-03  1.80854124457702E-01
 cg2d: Sum(rhs),rhsMax =  -3.78774573324766E-03  1.80860709071725E-01
 cg2d: Sum(rhs),rhsMax =  -3.78797738265453E-03  1.80867290934855E-01
 cg2d: Sum(rhs),rhsMax =  -3.78820723117809E-03  1.80873870047803E-01
(PID.TID 0000.0001)      cg2d_init_res =   7.24172742767256E-04
(PID.TID 0000.0001)      cg2d_iters(min,last) =      -1      73
(PID.TID 0000.0001)      cg2d_last_res =   9.78321810383372E-08
(PID.TID 0000.0001) // =======================================================
(PID.TID 0000.0001) // Begin MONITOR dynamic field statistics
(PID.TID 0000.0001) // =======================================================
(PID.TID 0000.0001) %MON time_tsnumber                =                 10368
(PID.TID 0000.0001) %MON time_secondsf                =   1.2441600000000E+07
(PID.TID 0000.0001) %MON dynstat_eta_max              =   2.4159349998220E-01
(PID.TID 0000.0001) %MON dynstat_eta_min              =  -8.7445605965888E-02
(PID.TID 0000.0001) %MON dynstat_eta_mean             =   3.4245137085776E-06
(PID.TID 0000.0001) %MON dynstat_eta_sd               =   9.7344573327574E-02
(PID.TID 0000.0001) %MON dynstat_eta_del2             =   2.7008719597191E-05
(PID.TID 0000.0001) %MON dynstat_uvel_max             =   1.3462326774188E-01
(PID.TID 0000.0001) %MON dynstat_uvel_min             =  -8.9230112610126E-02
(PID.TID 0000.0001) %MON dynstat_uvel_mean            =  -7.2414090301445E-08
(PID.TID 0000.0001) %MON dynstat_uvel_sd              =   4.0340012989716E-02
(PID.TID 0000.0001) %MON dynstat_uvel_del2            =   6.5169413353461E-05
(PID.TID 0000.0001) %MON dynstat_vvel_max             =   8.0785937512660E-02
(PID.TID 0000.0001) %MON dynstat_vvel_min             =  -1.0382247768881E-01
(PID.TID 0000.0001) %MON dynstat_vvel_mean            =   1.5692567130748E-07
(PID.TID 0000.0001) %MON dynstat_vvel_sd              =   3.6490942135427E-02
(PID.TID 0000.0001) %MON dynstat_vvel_del2            =   4.0917296844331E-05
(PID.TID 0000.0001) %MON dynstat_wvel_max             =   1.8149194288417E-08
(PID.TID 0000.0001) %MON dynstat_wvel_min             =  -8.8638831704156E-09
(PID.TID 0000.0001) %MON dynstat_wvel_mean            =  -7.0836621388379E-21
(PID.TID 0000.0001) %MON dynstat_wvel_sd              =   6.0476930188852E-09
(PID.TID 0000.0001) %MON dynstat_wvel_del2            =   2.3258872259856E-12
(PID.TID 0000.0001) %MON dynstat_theta_max            =   2.0000000000000E+01
(PID.TID 0000.0001) %MON dynstat_theta_min            =   2.0000000000000E+01
(PID.TID 0000.0001) %MON dynstat_theta_mean           =   2.0000000000000E+01
(PID.TID 0000.0001) %MON dynstat_theta_sd             =   3.8014036363165E-13
(PID.TID 0000.0001) %MON dynstat_theta_del2           =   0.0000000000000E+00
(PID.TID 0000.0001) %MON dynstat_salt_max             =   3.0000000000000E+01
(PID.TID 0000.0001) %MON dynstat_salt_min             =   3.0000000000000E+01
(PID.TID 0000.0001) %MON dynstat_salt_mean            =   2.9999999999999E+01
(PID.TID 0000.0001) %MON dynstat_salt_sd              =   5.5777604757167E-13
(PID.TID 0000.0001) %MON dynstat_salt_del2            =   0.0000000000000E+00
(PID.TID 0000.0001) %MON trAdv_CFL_u_max              =   8.0759329410005E-03
(PID.TID 0000.0001) %MON trAdv_CFL_v_max              =   6.2208380017386E-03
(PID.TID 0000.0001) %MON trAdv_CFL_w_max              =   4.7292592636451E-09
(PID.TID 0000.0001) %MON advcfl_uvel_max              =   8.0773960645128E-03
(PID.TID 0000.0001) %MON advcfl_vvel_max              =   6.2293486613284E-03
(PID.TID 0000.0001) %MON advcfl_wvel_max              =   8.7116132584400E-09
(PID.TID 0000.0001) %MON advcfl_W_hf_max              =   0.0000000000000E+00
(PID.TID 0000.0001) %MON pe_b_mean                    =   9.7150890512433E-06
(PID.TID 0000.0001) %MON ke_max                       =   9.0709448704498E-03
(PID.TID 0000.0001) %MON ke_mean                      =   1.4522476643425E-03
(PID.TID 0000.0001) %MON ke_vol                       =   6.8893493896486E+15
(PID.TID 0000.0001) %MON vort_r_min                   =  -9.9885377591081E-07
(PID.TID 0000.0001) %MON vort_r_max                   =   2.9307336427507E-06
(PID.TID 0000.0001) %MON vort_a_mean                  =   1.0600000000000E-04
(PID.TID 0000.0001) %MON vort_a_sd                    =   3.5548467165377E-06
(PID.TID 0000.0001) %MON vort_p_mean                  =   1.1652272308690E-04
(PID.TID 0000.0001) %MON vort_p_sd                    =   4.1786649672491E-05
(PID.TID 0000.0001) %MON surfExpan_theta_mean         =  -1.4165601037853E-19
(PID.TID 0000.0001) %MON surfExpan_salt_mean          =  -2.1248227868556E-19
(PID.TID 0000.0001) // =======================================================
(PID.TID 0000.0001) // End MONITOR dynamic field statistics
(PID.TID 0000.0001) // =======================================================
 cg2d: Sum(rhs),rhsMax =  -3.78843529532738E-03  1.80880446411309E-01
 cg2d: Sum(rhs),rhsMax =  -3.78866159096032E-03  1.80887020026104E-01
 cg2d: Sum(rhs),rhsMax =  -3.78888613460086E-03  1.80893590892941E-01
 cg2d: Sum(rhs),rhsMax =  -3.78910894306905E-03  1.80900159012564E-01
 cg2d: Sum(rhs),rhsMax =  -3.78933003257663E-03  1.80906724385741E-01
 cg2d: Sum(rhs),rhsMax =  -3.78954942058792E-03  1.80913287013243E-01
 cg2d: Sum(rhs),rhsMax =  -3.78976712297911E-03  1.80919846895833E-01
 cg2d: Sum(rhs),rhsMax =  -3.78998315702179E-03  1.80926404034308E-01
 cg2d: Sum(rhs),rhsMax =  -3.79019753938135E-03  1.80932958429450E-01
 cg2d: Sum(rhs),rhsMax =  -3.79041028725677E-03  1.80939510082061E-01
 cg2d: Sum(rhs),rhsMax =  -3.79062141712729E-03  1.80946058992950E-01
 cg2d: Sum(rhs),rhsMax =  -3.79083094606046E-03  1.80952605162923E-01
 cg2d: Sum(rhs),rhsMax =  -3.79103889124782E-03  1.80959148592812E-01
 cg2d: Sum(rhs),rhsMax =  -3.79124526970692E-03  1.80965689283430E-01
 cg2d: Sum(rhs),rhsMax =  -3.79145009871854E-03  1.80972227235623E-01
 cg2d: Sum(rhs),rhsMax =  -3.79165339504000E-03  1.80978762450231E-01
 cg2d: Sum(rhs),rhsMax =  -3.79185517626840E-03  1.80985294928105E-01
 cg2d: Sum(rhs),rhsMax =  -3.79205545956769E-03  1.80991824670100E-01
 cg2d: Sum(rhs),rhsMax =  -3.79225426216274E-03  1.80998351677089E-01
 cg2d: Sum(rhs),rhsMax =  -3.79245160139326E-03  1.81004875949935E-01
 cg2d: Sum(rhs),rhsMax =  -3.79264749469941E-03  1.81011397489527E-01
 cg2d: Sum(rhs),rhsMax =  -3.79284195934541E-03  1.81017916296744E-01
 cg2d: Sum(rhs),rhsMax =  -3.79303501255925E-03  1.81024432372487E-01
 cg2d: Sum(rhs),rhsMax =  -3.79322667196311E-03  1.81030945717655E-01
 cg2d: Sum(rhs),rhsMax =  -3.79341695499735E-03  1.81037456333158E-01
 cg2d: Sum(rhs),rhsMax =  -3.79360587924078E-03  1.81043964219910E-01
 cg2d: Sum(rhs),rhsMax =  -3.79379346183184E-03  1.81050469378841E-01
 cg2d: Sum(rhs),rhsMax =  -3.79397972086053E-03  1.81056971810876E-01
 cg2d: Sum(rhs),rhsMax =  -3.79416467266079E-03  1.81063471516959E-01
 cg2d: Sum(rhs),rhsMax =  -3.79434833602081E-03  1.81069968498034E-01
 cg2d: Sum(rhs),rhsMax =  -3.79453072807147E-03  1.81076462755049E-01
 cg2d: Sum(rhs),rhsMax =  -3.79471186625705E-03  1.81082954288973E-01
 cg2d: Sum(rhs),rhsMax =  -3.79489176785202E-03  1.81089443100769E-01
 cg2d: Sum(rhs),rhsMax =  -3.79507045059247E-03  1.81095929191411E-01
 cg2d: Sum(rhs),rhsMax =  -3.79524793220780E-03  1.81102412561883E-01
 cg2d: Sum(rhs),rhsMax =  -3.79542422996592E-03  1.81108893213177E-01
 cg2d: Sum(rhs),rhsMax =  -3.79559936153116E-03  1.81115371146284E-01
 cg2d: Sum(rhs),rhsMax =  -3.79577334393799E-03  1.81121846362210E-01
 cg2d: Sum(rhs),rhsMax =  -3.79594619561264E-03  1.81128318861969E-01
 cg2d: Sum(rhs),rhsMax =  -3.79611793341592E-03  1.81134788646572E-01
 cg2d: Sum(rhs),rhsMax =  -3.79628857494387E-03  1.81141255717057E-01
 cg2d: Sum(rhs),rhsMax =  -3.79645813769134E-03  1.81147720074439E-01
 cg2d: Sum(rhs),rhsMax =  -3.79662663916951E-03  1.81154181719773E-01
 cg2d: Sum(rhs),rhsMax =  -3.79679409676883E-03  1.81160640654098E-01
 cg2d: Sum(rhs),rhsMax =  -3.79696052771872E-03  1.81167096878468E-01
 cg2d: Sum(rhs),rhsMax =  -3.79712594965512E-03  1.81173550393948E-01
 cg2d: Sum(rhs),rhsMax =  -3.79729037960878E-03  1.81180001201602E-01
 cg2d: Sum(rhs),rhsMax =  -3.79745383510717E-03  1.81186449302512E-01
 cg2d: Sum(rhs),rhsMax =  -3.79761633361693E-03  1.81192894697751E-01
 cg2d: Sum(rhs),rhsMax =  -3.79777789202837E-03  1.81199337388411E-01
 cg2d: Sum(rhs),rhsMax =  -3.79793852789852E-03  1.81205777375595E-01
 cg2d: Sum(rhs),rhsMax =  -3.79809825827764E-03  1.81212214660398E-01
 cg2d: Sum(rhs),rhsMax =  -3.79825710008818E-03  1.81218649243938E-01
 cg2d: Sum(rhs),rhsMax =  -3.79841507081264E-03  1.81225081127329E-01
 cg2d: Sum(rhs),rhsMax =  -3.79857218742040E-03  1.81231510311692E-01
 cg2d: Sum(rhs),rhsMax =  -3.79872846691789E-03  1.81237936798168E-01
 cg2d: Sum(rhs),rhsMax =  -3.79888392601687E-03  1.81244360587885E-01
 cg2d: Sum(rhs),rhsMax =  -3.79903858181800E-03  1.81250781681997E-01
 cg2d: Sum(rhs),rhsMax =  -3.79919245134566E-03  1.81257200081654E-01
 cg2d: Sum(rhs),rhsMax =  -3.79934555133905E-03  1.81263615788010E-01
 cg2d: Sum(rhs),rhsMax =  -3.79949789847762E-03  1.81270028802240E-01
 cg2d: Sum(rhs),rhsMax =  -3.79964950942335E-03  1.81276439125514E-01
 cg2d: Sum(rhs),rhsMax =  -3.79980040080069E-03  1.81282846759013E-01
 cg2d: Sum(rhs),rhsMax =  -3.79995058950966E-03  1.81289251703928E-01
 cg2d: Sum(rhs),rhsMax =  -3.80010009171895E-03  1.81295653961445E-01
 cg2d: Sum(rhs),rhsMax =  -3.80024892377115E-03  1.81302053532769E-01
 cg2d: Sum(rhs),rhsMax =  -3.80039710301431E-03  1.81308450419114E-01
 cg2d: Sum(rhs),rhsMax =  -3.80054464472590E-03  1.81314844621683E-01
 cg2d: Sum(rhs),rhsMax =  -3.80069156560776E-03  1.81321236141713E-01
 cg2d: Sum(rhs),rhsMax =  -3.80083788227014E-03  1.81327624980423E-01
 cg2d: Sum(rhs),rhsMax =  -3.80098360977668E-03  1.81334011139046E-01
 cg2d: Sum(rhs),rhsMax =  -3.80112876471208E-03  1.81340394618836E-01
(PID.TID 0000.0001)      cg2d_init_res =   7.14869870326365E-04
(PID.TID 0000.0001)      cg2d_iters(min,last) =      -1      73
(PID.TID 0000.0001)      cg2d_last_res =   9.63665496907010E-08
(PID.TID 0000.0001) // =======================================================
(PID.TID 0000.0001) // Begin MONITOR dynamic field statistics
(PID.TID 0000.0001) // =======================================================
(PID.TID 0000.0001) %MON time_tsnumber                =                 10440
(PID.TID 0000.0001) %MON time_secondsf                =   1.2528000000000E+07
(PID.TID 0000.0001) %MON dynstat_eta_max              =   2.4297021660989E-01
(PID.TID 0000.0001) %MON dynstat_eta_min              =  -8.7751300007858E-02
(PID.TID 0000.0001) %MON dynstat_eta_mean             =   3.4449772153905E-06
(PID.TID 0000.0001) %MON dynstat_eta_sd               =   9.7843007316245E-02
(PID.TID 0000.0001) %MON dynstat_eta_del2             =   2.7109789981584E-05
(PID.TID 0000.0001) %MON dynstat_uvel_max             =   1.3510181472664E-01
(PID.TID 0000.0001) %MON dynstat_uvel_min             =  -8.9653951483806E-02
(PID.TID 0000.0001) %MON dynstat_uvel_mean            =  -6.9463381231254E-08
(PID.TID 0000.0001) %MON dynstat_uvel_sd              =   4.0525604527111E-02
(PID.TID 0000.0001) %MON dynstat_uvel_del2            =   6.5279248442407E-05
(PID.TID 0000.0001) %MON dynstat_vvel_max             =   8.0637961353243E-02
(PID.TID 0000.0001) %MON dynstat_vvel_min             =  -1.0429389061682E-01
(PID.TID 0000.0001) %MON dynstat_vvel_mean            =   1.6269111462123E-07
(PID.TID 0000.0001) %MON dynstat_vvel_sd              =   3.6679381661726E-02
(PID.TID 0000.0001) %MON dynstat_vvel_del2            =   4.0954178324477E-05
(PID.TID 0000.0001) %MON dynstat_wvel_max             =   1.8153069040272E-08
(PID.TID 0000.0001) %MON dynstat_wvel_min             =  -9.0574491483858E-09
(PID.TID 0000.0001) %MON dynstat_wvel_mean            =   1.9711660570465E-21
(PID.TID 0000.0001) %MON dynstat_wvel_sd              =   6.0300534775024E-09
(PID.TID 0000.0001) %MON dynstat_wvel_del2            =   2.3002309401108E-12
(PID.TID 0000.0001) %MON dynstat_theta_max            =   2.0000000000000E+01
(PID.TID 0000.0001) %MON dynstat_theta_min            =   2.0000000000000E+01
(PID.TID 0000.0001) %MON dynstat_theta_mean           =   2.0000000000000E+01
(PID.TID 0000.0001) %MON dynstat_theta_sd             =   3.8014036363165E-13
(PID.TID 0000.0001) %MON dynstat_theta_del2           =   0.0000000000000E+00
(PID.TID 0000.0001) %MON dynstat_salt_max             =   3.0000000000000E+01
(PID.TID 0000.0001) %MON dynstat_salt_min             =   3.0000000000000E+01
(PID.TID 0000.0001) %MON dynstat_salt_mean            =   2.9999999999999E+01
(PID.TID 0000.0001) %MON dynstat_salt_sd              =   5.5777604757167E-13
(PID.TID 0000.0001) %MON dynstat_salt_del2            =   0.0000000000000E+00
(PID.TID 0000.0001) %MON trAdv_CFL_u_max              =   8.1046477189421E-03
(PID.TID 0000.0001) %MON trAdv_CFL_v_max              =   6.2490988722624E-03
(PID.TID 0000.0001) %MON trAdv_CFL_w_max              =   4.7299893982391E-09
(PID.TID 0000.0001) %MON advcfl_uvel_max              =   8.1061088835983E-03
(PID.TID 0000.0001) %MON advcfl_vvel_max              =   6.2576334370090E-03
(PID.TID 0000.0001) %MON advcfl_wvel_max              =   8.7134731393307E-09
(PID.TID 0000.0001) %MON advcfl_W_hf_max              =   0.0000000000000E+00
(PID.TID 0000.0001) %MON pe_b_mean                    =   9.8148322116061E-06
(PID.TID 0000.0001) %MON ke_max                       =   9.1364533683630E-03
(PID.TID 0000.0001) %MON ke_mean                      =   1.4663809813366E-03
(PID.TID 0000.0001) %MON ke_vol                       =   6.8893493896486E+15
(PID.TID 0000.0001) %MON vort_r_min                   =  -9.9558334801456E-07
(PID.TID 0000.0001) %MON vort_r_max                   =   2.9397389569443E-06
(PID.TID 0000.0001) %MON vort_a_mean                  =   1.0600000000000E-04
(PID.TID 0000.0001) %MON vort_a_sd                    =   3.5550875978203E-06
(PID.TID 0000.0001) %MON vort_p_mean                  =   1.1652272308690E-04
(PID.TID 0000.0001) %MON vort_p_sd                    =   4.1786730349367E-05
(PID.TID 0000.0001) %MON surfExpan_theta_mean         =   3.9443016753972E-20
(PID.TID 0000.0001) %MON surfExpan_salt_mean          =   5.9180946563073E-20
(PID.TID 0000.0001) // =======================================================
(PID.TID 0000.0001) // End MONITOR dynamic field statistics
(PID.TID 0000.0001) // =======================================================
 cg2d: Sum(rhs),rhsMax =  -3.80127336332820E-03  1.81346775421027E-01
 cg2d: Sum(rhs),rhsMax =  -3.80141742153389E-03  1.81353153546887E-01
 cg2d: Sum(rhs),rhsMax =  -3.80156095427417E-03  1.81359528997679E-01
 cg2d: Sum(rhs),rhsMax =  -3.80170397845907E-03  1.81365901774668E-01
 cg2d: Sum(rhs),rhsMax =  -3.80184650879578E-03  1.81372271879131E-01
 cg2d: Sum(rhs),rhsMax =  -3.80198856134973E-03  1.81378639312356E-01
 cg2d: Sum(rhs),rhsMax =  -3.80213015119790E-03  1.81385004075626E-01
 cg2d: Sum(rhs),rhsMax =  -3.80227129411651E-03  1.81391366170242E-01
 cg2d: Sum(rhs),rhsMax =  -3.80241200534670E-03  1.81397725597510E-01
 cg2d: Sum(rhs),rhsMax =  -3.80255229992791E-03  1.81404082358734E-01
 cg2d: Sum(rhs),rhsMax =  -3.80269219329644E-03  1.81410436455235E-01
 cg2d: Sum(rhs),rhsMax =  -3.80283170034093E-03  1.81416787888344E-01
 cg2d: Sum(rhs),rhsMax =  -3.80297083559139E-03  1.81423136659379E-01
 cg2d: Sum(rhs),rhsMax =  -3.80310961450454E-03  1.81429482769685E-01
 cg2d: Sum(rhs),rhsMax =  -3.80324805196065E-03  1.81435826220603E-01
 cg2d: Sum(rhs),rhsMax =  -3.80338616157107E-03  1.81442167013488E-01
 cg2d: Sum(rhs),rhsMax =  -3.80352395856070E-03  1.81448505149689E-01
 cg2d: Sum(rhs),rhsMax =  -3.80366145738338E-03  1.81454840630577E-01
 cg2d: Sum(rhs),rhsMax =  -3.80379867238818E-03  1.81461173457526E-01
 cg2d: Sum(rhs),rhsMax =  -3.80393561803164E-03  1.81467503631903E-01
 cg2d: Sum(rhs),rhsMax =  -3.80407230791442E-03  1.81473831155097E-01
 cg2d: Sum(rhs),rhsMax =  -3.80420875631825E-03  1.81480156028500E-01
 cg2d: Sum(rhs),rhsMax =  -3.80434497730895E-03  1.81486478253511E-01
 cg2d: Sum(rhs),rhsMax =  -3.80448098429178E-03  1.81492797831526E-01
 cg2d: Sum(rhs),rhsMax =  -3.80461679181891E-03  1.81499114763963E-01
 cg2d: Sum(rhs),rhsMax =  -3.80475241247756E-03  1.81505429052230E-01
 cg2d: Sum(rhs),rhsMax =  -3.80488786040451E-03  1.81511740697761E-01
 cg2d: Sum(rhs),rhsMax =  -3.80502314910410E-03  1.81518049701984E-01
 cg2d: Sum(rhs),rhsMax =  -3.80515829183972E-03  1.81524356066330E-01
 cg2d: Sum(rhs),rhsMax =  -3.80529330088019E-03  1.81530659792244E-01
 cg2d: Sum(rhs),rhsMax =  -3.80542819006121E-03  1.81536960881178E-01
 cg2d: Sum(rhs),rhsMax =  -3.80556297222690E-03  1.81543259334584E-01
 cg2d: Sum(rhs),rhsMax =  -3.80569765953321E-03  1.81549555153931E-01
 cg2d: Sum(rhs),rhsMax =  -3.80583226586606E-03  1.81555848340685E-01
 cg2d: Sum(rhs),rhsMax =  -3.80596680303333E-03  1.81562138896321E-01
 cg2d: Sum(rhs),rhsMax =  -3.80610128372664E-03  1.81568426822320E-01
 cg2d: Sum(rhs),rhsMax =  -3.80623572015096E-03  1.81574712120169E-01
 cg2d: Sum(rhs),rhsMax =  -3.80637012430390E-03  1.81580994791368E-01
 cg2d: Sum(rhs),rhsMax =  -3.80650450903484E-03  1.81587274837416E-01
 cg2d: Sum(rhs),rhsMax =  -3.80663888562773E-03  1.81593552259823E-01
 cg2d: Sum(rhs),rhsMax =  -3.80677326620436E-03  1.81599827060098E-01
 cg2d: Sum(rhs),rhsMax =  -3.80690766266521E-03  1.81606099239763E-01
 cg2d: Sum(rhs),rhsMax =  -3.80704208610979E-03  1.81612368800349E-01
 cg2d: Sum(rhs),rhsMax =  -3.80717654876430E-03  1.81618635743386E-01
 cg2d: Sum(rhs),rhsMax =  -3.80731106119358E-03  1.81624900070417E-01
 cg2d: Sum(rhs),rhsMax =  -3.80744563512677E-03  1.81631161782985E-01
 cg2d: Sum(rhs),rhsMax =  -3.80758028149734E-03  1.81637420882641E-01
 cg2d: Sum(rhs),rhsMax =  -3.80771501171599E-03  1.81643677370947E-01
 cg2d: Sum(rhs),rhsMax =  -3.80784983649710E-03  1.81649931249467E-01
 cg2d: Sum(rhs),rhsMax =  -3.80798476621534E-03  1.81656182519769E-01
 cg2d: Sum(rhs),rhsMax =  -3.80811981184934E-03  1.81662431183440E-01
 cg2d: Sum(rhs),rhsMax =  -3.80825498364871E-03  1.81668677242056E-01
 cg2d: Sum(rhs),rhsMax =  -3.80839029227440E-03  1.81674920697206E-01
 cg2d: Sum(rhs),rhsMax =  -3.80852574765277E-03  1.81681161550492E-01
 cg2d: Sum(rhs),rhsMax =  -3.80866135996469E-03  1.81687399803517E-01
 cg2d: Sum(rhs),rhsMax =  -3.80879713924524E-03  1.81693635457881E-01
 cg2d: Sum(rhs),rhsMax =  -3.80893309540800E-03  1.81699868515210E-01
 cg2d: Sum(rhs),rhsMax =  -3.80906923825467E-03  1.81706098977124E-01
 cg2d: Sum(rhs),rhsMax =  -3.80920557728160E-03  1.81712326845238E-01
 cg2d: Sum(rhs),rhsMax =  -3.80934212195799E-03  1.81718552121204E-01
 cg2d: Sum(rhs),rhsMax =  -3.80947888128542E-03  1.81724774806652E-01
 cg2d: Sum(rhs),rhsMax =  -3.80961586516882E-03  1.81730994903231E-01
 cg2d: Sum(rhs),rhsMax =  -3.80975308218111E-03  1.81737212412590E-01
 cg2d: Sum(rhs),rhsMax =  -3.80989054144752E-03  1.81743427336390E-01
 cg2d: Sum(rhs),rhsMax =  -3.81002825144768E-03  1.81749639676300E-01
 cg2d: Sum(rhs),rhsMax =  -3.81016622161676E-03  1.81755849433981E-01
 cg2d: Sum(rhs),rhsMax =  -3.81030445985879E-03  1.81762056611121E-01
 cg2d: Sum(rhs),rhsMax =  -3.81044297490541E-03  1.81768261209392E-01
 cg2d: Sum(rhs),rhsMax =  -3.81058177517559E-03  1.81774463230490E-01
 cg2d: Sum(rhs),rhsMax =  -3.81072086871384E-03  1.81780662676111E-01
 cg2d: Sum(rhs),rhsMax =  -3.81086026345138E-03  1.81786859547952E-01
 cg2d: Sum(rhs),rhsMax =  -3.81099996739021E-03  1.81793053847724E-01
(PID.TID 0000.0001)      cg2d_init_res =   7.06116298318469E-04
(PID.TID 0000.0001)      cg2d_iters(min,last) =      -1      73
(PID.TID 0000.0001)      cg2d_last_res =   9.63035231240466E-08
(PID.TID 0000.0001) // =======================================================
(PID.TID 0000.0001) // Begin MONITOR dynamic field statistics
(PID.TID 0000.0001) // =======================================================
(PID.TID 0000.0001) %MON time_tsnumber                =                 10512
(PID.TID 0000.0001) %MON time_secondsf                =   1.2614400000000E+07
(PID.TID 0000.0001) %MON dynstat_eta_max              =   2.4433994131207E-01
(PID.TID 0000.0001) %MON dynstat_eta_min              =  -8.8042419038766E-02
(PID.TID 0000.0001) %MON dynstat_eta_mean             =   3.4625367518975E-06
(PID.TID 0000.0001) %MON dynstat_eta_sd               =   9.8339199619899E-02
(PID.TID 0000.0001) %MON dynstat_eta_del2             =   2.7211755006345E-05
(PID.TID 0000.0001) %MON dynstat_uvel_max             =   1.3557292809938E-01
(PID.TID 0000.0001) %MON dynstat_uvel_min             =  -9.0087621838514E-02
(PID.TID 0000.0001) %MON dynstat_uvel_mean            =  -6.4992448806248E-08
(PID.TID 0000.0001) %MON dynstat_uvel_sd              =   4.0712400427486E-02
(PID.TID 0000.0001) %MON dynstat_uvel_del2            =   6.5392129852871E-05
(PID.TID 0000.0001) %MON dynstat_vvel_max             =   8.0487049469451E-02
(PID.TID 0000.0001) %MON dynstat_vvel_min             =  -1.0475083342920E-01
(PID.TID 0000.0001) %MON dynstat_vvel_mean            =   1.6819643260528E-07
(PID.TID 0000.0001) %MON dynstat_vvel_sd              =   3.6864423355524E-02
(PID.TID 0000.0001) %MON dynstat_vvel_del2            =   4.0987543323267E-05
(PID.TID 0000.0001) %MON dynstat_wvel_max             =   1.8210028904723E-08
(PID.TID 0000.0001) %MON dynstat_wvel_min             =  -9.2223616427509E-09
(PID.TID 0000.0001) %MON dynstat_wvel_mean            =   5.4107270999440E-21
(PID.TID 0000.0001) %MON dynstat_wvel_sd              =   6.0115902332590E-09
(PID.TID 0000.0001) %MON dynstat_wvel_del2            =   2.2744152964506E-12
(PID.TID 0000.0001) %MON dynstat_theta_max            =   2.0000000000000E+01
(PID.TID 0000.0001) %MON dynstat_theta_min            =   2.0000000000000E+01
(PID.TID 0000.0001) %MON dynstat_theta_mean           =   2.0000000000000E+01
(PID.TID 0000.0001) %MON dynstat_theta_sd             =   3.8014036363165E-13
(PID.TID 0000.0001) %MON dynstat_theta_del2           =   0.0000000000000E+00
(PID.TID 0000.0001) %MON dynstat_salt_max             =   3.0000000000000E+01
(PID.TID 0000.0001) %MON dynstat_salt_min             =   3.0000000000000E+01
(PID.TID 0000.0001) %MON dynstat_salt_mean            =   2.9999999999999E+01
(PID.TID 0000.0001) %MON dynstat_salt_sd              =   5.5777604757167E-13
(PID.TID 0000.0001) %MON dynstat_salt_del2            =   0.0000000000000E+00
(PID.TID 0000.0001) %MON trAdv_CFL_u_max              =   8.1329174247425E-03
(PID.TID 0000.0001) %MON trAdv_CFL_v_max              =   6.2764908899724E-03
(PID.TID 0000.0001) %MON trAdv_CFL_w_max              =   4.7434346171258E-09
(PID.TID 0000.0001) %MON advcfl_uvel_max              =   8.1343756859626E-03
(PID.TID 0000.0001) %MON advcfl_vvel_max              =   6.2850500057521E-03
(PID.TID 0000.0001) %MON advcfl_wvel_max              =   8.7408138742670E-09
(PID.TID 0000.0001) %MON advcfl_W_hf_max              =   0.0000000000000E+00
(PID.TID 0000.0001) %MON pe_b_mean                    =   9.9146327613437E-06
(PID.TID 0000.0001) %MON ke_max                       =   9.2012052898504E-03
(PID.TID 0000.0001) %MON ke_mean                      =   1.4805081343490E-03
(PID.TID 0000.0001) %MON ke_vol                       =   6.8893493896486E+15
(PID.TID 0000.0001) %MON vort_r_min                   =  -9.9317953947880E-07
(PID.TID 0000.0001) %MON vort_r_max                   =   2.9485637453023E-06
(PID.TID 0000.0001) %MON vort_a_mean                  =   1.0600000000000E-04
(PID.TID 0000.0001) %MON vort_a_sd                    =   3.5553287491538E-06
(PID.TID 0000.0001) %MON vort_p_mean                  =   1.1652272308690E-04
(PID.TID 0000.0001) %MON vort_p_sd                    =   4.1786808655912E-05
(PID.TID 0000.0001) %MON surfExpan_theta_mean         =   1.0819481606935E-19
(PID.TID 0000.0001) %MON surfExpan_salt_mean          =   1.6227769745253E-19
(PID.TID 0000.0001) // =======================================================
(PID.TID 0000.0001) // End MONITOR dynamic field statistics
(PID.TID 0000.0001) // =======================================================
 cg2d: Sum(rhs),rhsMax =  -3.81113998825464E-03  1.81799245577139E-01
 cg2d: Sum(rhs),rhsMax =  -3.81128033407097E-03  1.81805434737918E-01
 cg2d: Sum(rhs),rhsMax =  -3.81142101202132E-03  1.81811621331782E-01
 cg2d: Sum(rhs),rhsMax =  -3.81156202994831E-03  1.81817805360467E-01
 cg2d: Sum(rhs),rhsMax =  -3.81170339428373E-03  1.81823986825708E-01
 cg2d: Sum(rhs),rhsMax =  -3.81184511301712E-03  1.81830165729249E-01
 cg2d: Sum(rhs),rhsMax =  -3.81198719246403E-03  1.81836342072842E-01
 cg2d: Sum(rhs),rhsMax =  -3.81212964027534E-03  1.81842515858239E-01
 cg2d: Sum(rhs),rhsMax =  -3.81227246280253E-03  1.81848687087203E-01
 cg2d: Sum(rhs),rhsMax =  -3.81241566698749E-03  1.81854855761504E-01
 cg2d: Sum(rhs),rhsMax =  -3.81255925883899E-03  1.81861021882910E-01
 cg2d: Sum(rhs),rhsMax =  -3.81270324506169E-03  1.81867185453204E-01
 cg2d: Sum(rhs),rhsMax =  -3.81284763164918E-03  1.81873346474171E-01
 cg2d: Sum(rhs),rhsMax =  -3.81299242502017E-03  1.81879504947599E-01
 cg2d: Sum(rhs),rhsMax =  -3.81313763123142E-03  1.81885660875291E-01
 cg2d: Sum(rhs),rhsMax =  -3.81328325603141E-03  1.81891814259042E-01
 cg2d: Sum(rhs),rhsMax =  -3.81342930532817E-03  1.81897965100670E-01
 cg2d: Sum(rhs),rhsMax =  -3.81357578480213E-03  1.81904113401981E-01
 cg2d: Sum(rhs),rhsMax =  -3.81372269984142E-03  1.81910259164801E-01
 cg2d: Sum(rhs),rhsMax =  -3.81387005583690E-03  1.81916402390949E-01
 cg2d: Sum(rhs),rhsMax =  -3.81401785794240E-03  1.81922543082267E-01
 cg2d: Sum(rhs),rhsMax =  -3.81416611156814E-03  1.81928681240590E-01
 cg2d: Sum(rhs),rhsMax =  -3.81431482131231E-03  1.81934816867760E-01
 cg2d: Sum(rhs),rhsMax =  -3.81446399285440E-03  1.81940949965623E-01
 cg2d: Sum(rhs),rhsMax =  -3.81461363016607E-03  1.81947080536038E-01
 cg2d: Sum(rhs),rhsMax =  -3.81476373820934E-03  1.81953208580870E-01
 cg2d: Sum(rhs),rhsMax =  -3.81491432205077E-03  1.81959334101981E-01
 cg2d: Sum(rhs),rhsMax =  -3.81506538515064E-03  1.81965457101247E-01
 cg2d: Sum(rhs),rhsMax =  -3.81521693262915E-03  1.81971577580537E-01
 cg2d: Sum(rhs),rhsMax =  -3.81536896842394E-03  1.81977695541745E-01
 cg2d: Sum(rhs),rhsMax =  -3.81552149630427E-03  1.81983810986761E-01
 cg2d: Sum(rhs),rhsMax =  -3.81567452055055E-03  1.81989923917474E-01
 cg2d: Sum(rhs),rhsMax =  -3.81582804473677E-03  1.81996034335786E-01
 cg2d: Sum(rhs),rhsMax =  -3.81598207330373E-03  1.82002142243610E-01
 cg2d: Sum(rhs),rhsMax =  -3.81613660901471E-03  1.82008247642856E-01
 cg2d: Sum(rhs),rhsMax =  -3.81629165606898E-03  1.82014350535434E-01
 cg2d: Sum(rhs),rhsMax =  -3.81644721689848E-03  1.82020450923283E-01
 cg2d: Sum(rhs),rhsMax =  -3.81660329533265E-03  1.82026548808317E-01
 cg2d: Sum(rhs),rhsMax =  -3.81675989462473E-03  1.82032644192483E-01
 cg2d: Sum(rhs),rhsMax =  -3.81691701782508E-03  1.82038737077715E-01
 cg2d: Sum(rhs),rhsMax =  -3.81707466771349E-03  1.82044827465961E-01
 cg2d: Sum(rhs),rhsMax =  -3.81723284700509E-03  1.82050915359175E-01
 cg2d: Sum(rhs),rhsMax =  -3.81739155879181E-03  1.82057000759310E-01
 cg2d: Sum(rhs),rhsMax =  -3.81755080543916E-03  1.82063083668333E-01
 cg2d: Sum(rhs),rhsMax =  -3.81771058948905E-03  1.82069164088209E-01
 cg2d: Sum(rhs),rhsMax =  -3.81787091333607E-03  1.82075242020914E-01
 cg2d: Sum(rhs),rhsMax =  -3.81803177892004E-03  1.82081317468430E-01
 cg2d: Sum(rhs),rhsMax =  -3.81819318870750E-03  1.82087390432739E-01
 cg2d: Sum(rhs),rhsMax =  -3.81835514507727E-03  1.82093460915830E-01
 cg2d: Sum(rhs),rhsMax =  -3.81851764919773E-03  1.82099528919704E-01
 cg2d: Sum(rhs),rhsMax =  -3.81868070397543E-03  1.82105594446359E-01
 cg2d: Sum(rhs),rhsMax =  -3.81884430973368E-03  1.82111657497806E-01
 cg2d: Sum(rhs),rhsMax =  -3.81900846955006E-03  1.82117718076053E-01
 cg2d: Sum(rhs),rhsMax =  -3.81917318438335E-03  1.82123776183118E-01
 cg2d: Sum(rhs),rhsMax =  -3.81933845526960E-03  1.82129831821027E-01
 cg2d: Sum(rhs),rhsMax =  -3.81950428405782E-03  1.82135884991810E-01
 cg2d: Sum(rhs),rhsMax =  -3.81967067206879E-03  1.82141935697500E-01
 cg2d: Sum(rhs),rhsMax =  -3.81983762012362E-03  1.82147983940133E-01
 cg2d: Sum(rhs),rhsMax =  -3.82000512987240E-03  1.82154029721758E-01
 cg2d: Sum(rhs),rhsMax =  -3.82017320153876E-03  1.82160073044427E-01
 cg2d: Sum(rhs),rhsMax =  -3.82034183624710E-03  1.82166113910189E-01
 cg2d: Sum(rhs),rhsMax =  -3.82051103473377E-03  1.82172152321114E-01
 cg2d: Sum(rhs),rhsMax =  -3.82068079772306E-03  1.82178188279263E-01
 cg2d: Sum(rhs),rhsMax =  -3.82085112578872E-03  1.82184221786709E-01
 cg2d: Sum(rhs),rhsMax =  -3.82102201912123E-03  1.82190252845529E-01
 cg2d: Sum(rhs),rhsMax =  -3.82119347871485E-03  1.82196281457803E-01
 cg2d: Sum(rhs),rhsMax =  -3.82136550442650E-03  1.82202307625627E-01
 cg2d: Sum(rhs),rhsMax =  -3.82153809616327E-03  1.82208331351083E-01
 cg2d: Sum(rhs),rhsMax =  -3.82171125467781E-03  1.82214352636279E-01
 cg2d: Sum(rhs),rhsMax =  -3.82188497985661E-03  1.82220371483314E-01
 cg2d: Sum(rhs),rhsMax =  -3.82205927098259E-03  1.82226387894296E-01
 cg2d: Sum(rhs),rhsMax =  -3.82223412864275E-03  1.82232401871342E-01
(PID.TID 0000.0001)      cg2d_init_res =   6.97962203882328E-04
(PID.TID 0000.0001)      cg2d_iters(min,last) =      -1      73
(PID.TID 0000.0001)      cg2d_last_res =   9.67333880690721E-08
(PID.TID 0000.0001) // =======================================================
(PID.TID 0000.0001) // Begin MONITOR dynamic field statistics
(PID.TID 0000.0001) // =======================================================
(PID.TID 0000.0001) %MON time_tsnumber                =                 10584
(PID.TID 0000.0001) %MON time_secondsf                =   1.2700800000000E+07
(PID.TID 0000.0001) %MON dynstat_eta_max              =   2.4570246423791E-01
(PID.TID 0000.0001) %MON dynstat_eta_min              =  -8.8319956533805E-02
(PID.TID 0000.0001) %MON dynstat_eta_mean             =   3.4811645897005E-06
(PID.TID 0000.0001) %MON dynstat_eta_sd               =   9.8833023905313E-02
(PID.TID 0000.0001) %MON dynstat_eta_del2             =   2.7314433246669E-05
(PID.TID 0000.0001) %MON dynstat_uvel_max             =   1.3603563584559E-01
(PID.TID 0000.0001) %MON dynstat_uvel_min             =  -9.0535652147222E-02
(PID.TID 0000.0001) %MON dynstat_uvel_mean            =  -5.9013420056378E-08
(PID.TID 0000.0001) %MON dynstat_uvel_sd              =   4.0900575773713E-02
(PID.TID 0000.0001) %MON dynstat_uvel_del2            =   6.5507849954449E-05
(PID.TID 0000.0001) %MON dynstat_vvel_max             =   8.0337838932795E-02
(PID.TID 0000.0001) %MON dynstat_vvel_min             =  -1.0519555449249E-01
(PID.TID 0000.0001) %MON dynstat_vvel_mean            =   1.7319832594303E-07
(PID.TID 0000.0001) %MON dynstat_vvel_sd              =   3.7045894414028E-02
(PID.TID 0000.0001) %MON dynstat_vvel_del2            =   4.1017266256711E-05
(PID.TID 0000.0001) %MON dynstat_wvel_max             =   1.8239894756116E-08
(PID.TID 0000.0001) %MON dynstat_wvel_min             =  -9.3440670322161E-09
(PID.TID 0000.0001) %MON dynstat_wvel_mean            =  -3.6526067661826E-21
(PID.TID 0000.0001) %MON dynstat_wvel_sd              =   5.9918955169075E-09
(PID.TID 0000.0001) %MON dynstat_wvel_del2            =   2.2485596827209E-12
(PID.TID 0000.0001) %MON dynstat_theta_max            =   2.0000000000000E+01
(PID.TID 0000.0001) %MON dynstat_theta_min            =   2.0000000000000E+01
(PID.TID 0000.0001) %MON dynstat_theta_mean           =   2.0000000000000E+01
(PID.TID 0000.0001) %MON dynstat_theta_sd             =   3.8014036363165E-13
(PID.TID 0000.0001) %MON dynstat_theta_del2           =   0.0000000000000E+00
(PID.TID 0000.0001) %MON dynstat_salt_max             =   3.0000000000000E+01
(PID.TID 0000.0001) %MON dynstat_salt_min             =   3.0000000000000E+01
(PID.TID 0000.0001) %MON dynstat_salt_mean            =   2.9999999999999E+01
(PID.TID 0000.0001) %MON dynstat_salt_sd              =   5.5777604757167E-13
(PID.TID 0000.0001) %MON dynstat_salt_del2            =   0.0000000000000E+00
(PID.TID 0000.0001) %MON trAdv_CFL_u_max              =   8.1606835942788E-03
(PID.TID 0000.0001) %MON trAdv_CFL_v_max              =   6.3031486028382E-03
(PID.TID 0000.0001) %MON trAdv_CFL_w_max              =   4.7513184617779E-09
(PID.TID 0000.0001) %MON advcfl_uvel_max              =   8.1621381507355E-03
(PID.TID 0000.0001) %MON advcfl_vvel_max              =   6.3117332695497E-03
(PID.TID 0000.0001) %MON advcfl_wvel_max              =   8.7551494829357E-09
(PID.TID 0000.0001) %MON advcfl_W_hf_max              =   0.0000000000000E+00
(PID.TID 0000.0001) %MON pe_b_mean                    =   1.0014458256270E-05
(PID.TID 0000.0001) %MON ke_max                       =   9.2650440461785E-03
(PID.TID 0000.0001) %MON ke_mean                      =   1.4946286797054E-03
(PID.TID 0000.0001) %MON ke_vol                       =   6.8893493896486E+15
(PID.TID 0000.0001) %MON vort_r_min                   =  -9.9146432285559E-07
(PID.TID 0000.0001) %MON vort_r_max                   =   2.9576634027203E-06
(PID.TID 0000.0001) %MON vort_a_mean                  =   1.0600000000000E-04
(PID.TID 0000.0001) %MON vort_a_sd                    =   3.5555698209281E-06
(PID.TID 0000.0001) %MON vort_p_mean                  =   1.1652272308690E-04
(PID.TID 0000.0001) %MON vort_p_sd                    =   4.1786884740989E-05
(PID.TID 0000.0001) %MON surfExpan_theta_mean         =  -7.3053740834439E-20
(PID.TID 0000.0001) %MON surfExpan_salt_mean          =  -1.0958566400000E-19
(PID.TID 0000.0001) // =======================================================
(PID.TID 0000.0001) // End MONITOR dynamic field statistics
(PID.TID 0000.0001) // =======================================================
 cg2d: Sum(rhs),rhsMax =  -3.82240955227089E-03  1.82238413416572E-01
 cg2d: Sum(rhs),rhsMax =  -3.82258554166561E-03  1.82244422532104E-01
 cg2d: Sum(rhs),rhsMax =  -3.82276209631517E-03  1.82250429220075E-01
 cg2d: Sum(rhs),rhsMax =  -3.82293921589859E-03  1.82256433482618E-01
 cg2d: Sum(rhs),rhsMax =  -3.82311689950304E-03  1.82262435321868E-01
 cg2d: Sum(rhs),rhsMax =  -3.82329514650604E-03  1.82268434739977E-01
 cg2d: Sum(rhs),rhsMax =  -3.82347395646001E-03  1.82274431739095E-01
 cg2d: Sum(rhs),rhsMax =  -3.82365332837194E-03  1.82280426321373E-01
 cg2d: Sum(rhs),rhsMax =  -3.82383326088736E-03  1.82286418488974E-01
 cg2d: Sum(rhs),rhsMax =  -3.82401375361074E-03  1.82292408244068E-01
 cg2d: Sum(rhs),rhsMax =  -3.82419480540174E-03  1.82298395588819E-01
 cg2d: Sum(rhs),rhsMax =  -3.82437641485384E-03  1.82304380525409E-01
 cg2d: Sum(rhs),rhsMax =  -3.82455858090715E-03  1.82310363056018E-01
 cg2d: Sum(rhs),rhsMax =  -3.82474130222756E-03  1.82316343182828E-01
 cg2d: Sum(rhs),rhsMax =  -3.82492457732735E-03  1.82322320908037E-01
 cg2d: Sum(rhs),rhsMax =  -3.82510840512017E-03  1.82328296233833E-01
 cg2d: Sum(rhs),rhsMax =  -3.82529278369568E-03  1.82334269162425E-01
 cg2d: Sum(rhs),rhsMax =  -3.82547771132353E-03  1.82340239696018E-01
 cg2d: Sum(rhs),rhsMax =  -3.82566318683450E-03  1.82346207836820E-01
 cg2d: Sum(rhs),rhsMax =  -3.82584920811868E-03  1.82352173587052E-01
 cg2d: Sum(rhs),rhsMax =  -3.82603577356118E-03  1.82358136948930E-01
 cg2d: Sum(rhs),rhsMax =  -3.82622288122589E-03  1.82364097924685E-01
 cg2d: Sum(rhs),rhsMax =  -3.82641052850712E-03  1.82370056516550E-01
 cg2d: Sum(rhs),rhsMax =  -3.82659871450620E-03  1.82376012726758E-01
 cg2d: Sum(rhs),rhsMax =  -3.82678743650120E-03  1.82381966557548E-01
 cg2d: Sum(rhs),rhsMax =  -3.82697669214430E-03  1.82387918011172E-01
 cg2d: Sum(rhs),rhsMax =  -3.82716647975847E-03  1.82393867089879E-01
 cg2d: Sum(rhs),rhsMax =  -3.82735679653100E-03  1.82399813795923E-01
 cg2d: Sum(rhs),rhsMax =  -3.82754764028867E-03  1.82405758131570E-01
 cg2d: Sum(rhs),rhsMax =  -3.82773900902803E-03  1.82411700099080E-01
 cg2d: Sum(rhs),rhsMax =  -3.82793089984295E-03  1.82417639700726E-01
 cg2d: Sum(rhs),rhsMax =  -3.82812331029870E-03  1.82423576938786E-01
 cg2d: Sum(rhs),rhsMax =  -3.82831623765589E-03  1.82429511815539E-01
 cg2d: Sum(rhs),rhsMax =  -3.82850967932342E-03  1.82435444333271E-01
 cg2d: Sum(rhs),rhsMax =  -3.82870363262402E-03  1.82441374494271E-01
 cg2d: Sum(rhs),rhsMax =  -3.82889809450104E-03  1.82447302300836E-01
 cg2d: Sum(rhs),rhsMax =  -3.82909306249479E-03  1.82453227755265E-01
 cg2d: Sum(rhs),rhsMax =  -3.82928853366807E-03  1.82459150859862E-01
 cg2d: Sum(rhs),rhsMax =  -3.82948450444206E-03  1.82465071616939E-01
 cg2d: Sum(rhs),rhsMax =  -3.82968097264591E-03  1.82470990028804E-01
 cg2d: Sum(rhs),rhsMax =  -3.82987793478512E-03  1.82476906097782E-01
 cg2d: Sum(rhs),rhsMax =  -3.83007538777148E-03  1.82482819826198E-01
 cg2d: Sum(rhs),rhsMax =  -3.83027332868259E-03  1.82488731216375E-01
 cg2d: Sum(rhs),rhsMax =  -3.83047175382248E-03  1.82494640270648E-01
 cg2d: Sum(rhs),rhsMax =  -3.83067066041281E-03  1.82500546991360E-01
 cg2d: Sum(rhs),rhsMax =  -3.83087004476902E-03  1.82506451380847E-01
 cg2d: Sum(rhs),rhsMax =  -3.83106990345323E-03  1.82512353441460E-01
 cg2d: Sum(rhs),rhsMax =  -3.83127023334489E-03  1.82518253175548E-01
 cg2d: Sum(rhs),rhsMax =  -3.83147103076725E-03  1.82524150585474E-01
 cg2d: Sum(rhs),rhsMax =  -3.83167229203507E-03  1.82530045673592E-01
 cg2d: Sum(rhs),rhsMax =  -3.83187401396022E-03  1.82535938442272E-01
 cg2d: Sum(rhs),rhsMax =  -3.83207619268987E-03  1.82541828893885E-01
 cg2d: Sum(rhs),rhsMax =  -3.83227882470338E-03  1.82547717030806E-01
 cg2d: Sum(rhs),rhsMax =  -3.83248190574785E-03  1.82553602855414E-01
 cg2d: Sum(rhs),rhsMax =  -3.83268543284768E-03  1.82559486370093E-01
 cg2d: Sum(rhs),rhsMax =  -3.83288940162018E-03  1.82565367577234E-01
 cg2d: Sum(rhs),rhsMax =  -3.83309380829713E-03  1.82571246479230E-01
 cg2d: Sum(rhs),rhsMax =  -3.83329864931023E-03  1.82577123078479E-01
 cg2d: Sum(rhs),rhsMax =  -3.83350392039265E-03  1.82582997377385E-01
 cg2d: Sum(rhs),rhsMax =  -3.83370961778735E-03  1.82588869378355E-01
 cg2d: Sum(rhs),rhsMax =  -3.83391573715419E-03  1.82594739083802E-01
 cg2d: Sum(rhs),rhsMax =  -3.83412227482863E-03  1.82600606496137E-01
 cg2d: Sum(rhs),rhsMax =  -3.83432922675935E-03  1.82606471617788E-01
 cg2d: Sum(rhs),rhsMax =  -3.83453658852802E-03  1.82612334451175E-01
 cg2d: Sum(rhs),rhsMax =  -3.83474435622368E-03  1.82618194998733E-01
 cg2d: Sum(rhs),rhsMax =  -3.83495252505066E-03  1.82624053262895E-01
 cg2d: Sum(rhs),rhsMax =  -3.83516109162396E-03  1.82629909246094E-01
 cg2d: Sum(rhs),rhsMax =  -3.83537005118750E-03  1.82635762950779E-01
 cg2d: Sum(rhs),rhsMax =  -3.83557939957662E-03  1.82641614379400E-01
 cg2d: Sum(rhs),rhsMax =  -3.83578913216222E-03  1.82647463534406E-01
 cg2d: Sum(rhs),rhsMax =  -3.83599924483279E-03  1.82653310418252E-01
 cg2d: Sum(rhs),rhsMax =  -3.83620973314611E-03  1.82659155033401E-01
(PID.TID 0000.0001)      cg2d_init_res =   6.90399124527073E-04
(PID.TID 0000.0001)      cg2d_iters(min,last) =      -1      73
(PID.TID 0000.0001)      cg2d_last_res =   9.71825159298166E-08
(PID.TID 0000.0001) // =======================================================
(PID.TID 0000.0001) // Begin MONITOR dynamic field statistics
(PID.TID 0000.0001) // =======================================================
(PID.TID 0000.0001) %MON time_tsnumber                =                 10656
(PID.TID 0000.0001) %MON time_secondsf                =   1.2787200000000E+07
(PID.TID 0000.0001) %MON dynstat_eta_max              =   2.4705758933692E-01
(PID.TID 0000.0001) %MON dynstat_eta_min              =  -8.8585212444637E-02
(PID.TID 0000.0001) %MON dynstat_eta_mean             =   3.5021033815256E-06
(PID.TID 0000.0001) %MON dynstat_eta_sd               =   9.9324347861716E-02
(PID.TID 0000.0001) %MON dynstat_eta_del2             =   2.7417644992700E-05
(PID.TID 0000.0001) %MON dynstat_uvel_max             =   1.3648914964674E-01
(PID.TID 0000.0001) %MON dynstat_uvel_min             =  -9.1001892948707E-02
(PID.TID 0000.0001) %MON dynstat_uvel_mean            =  -5.1608205146973E-08
(PID.TID 0000.0001) %MON dynstat_uvel_sd              =   4.1090212443373E-02
(PID.TID 0000.0001) %MON dynstat_uvel_del2            =   6.5626174873367E-05
(PID.TID 0000.0001) %MON dynstat_vvel_max             =   8.0194586134322E-02
(PID.TID 0000.0001) %MON dynstat_vvel_min             =  -1.0563048369337E-01
(PID.TID 0000.0001) %MON dynstat_vvel_mean            =   1.7746158715803E-07
(PID.TID 0000.0001) %MON dynstat_vvel_sd              =   3.7223740029681E-02
(PID.TID 0000.0001) %MON dynstat_vvel_del2            =   4.1043229756524E-05
(PID.TID 0000.0001) %MON dynstat_wvel_max             =   1.8239431228722E-08
(PID.TID 0000.0001) %MON dynstat_wvel_min             =  -9.4183639338007E-09
(PID.TID 0000.0001) %MON dynstat_wvel_mean            =  -6.4271675152365E-21
(PID.TID 0000.0001) %MON dynstat_wvel_sd              =   5.9707442443277E-09
(PID.TID 0000.0001) %MON dynstat_wvel_del2            =   2.2228900149205E-12
(PID.TID 0000.0001) %MON dynstat_theta_max            =   2.0000000000000E+01
(PID.TID 0000.0001) %MON dynstat_theta_min            =   2.0000000000000E+01
(PID.TID 0000.0001) %MON dynstat_theta_mean           =   2.0000000000000E+01
(PID.TID 0000.0001) %MON dynstat_theta_sd             =   3.8014036363165E-13
(PID.TID 0000.0001) %MON dynstat_theta_del2           =   0.0000000000000E+00
(PID.TID 0000.0001) %MON dynstat_salt_max             =   3.0000000000000E+01
(PID.TID 0000.0001) %MON dynstat_salt_min             =   3.0000000000000E+01
(PID.TID 0000.0001) %MON dynstat_salt_mean            =   2.9999999999999E+01
(PID.TID 0000.0001) %MON dynstat_salt_sd              =   5.5777604757167E-13
(PID.TID 0000.0001) %MON dynstat_salt_del2            =   0.0000000000000E+00
(PID.TID 0000.0001) %MON trAdv_CFL_u_max              =   8.1878987800765E-03
(PID.TID 0000.0001) %MON trAdv_CFL_v_max              =   6.3292174903682E-03
(PID.TID 0000.0001) %MON trAdv_CFL_w_max              =   4.7513127854628E-09
(PID.TID 0000.0001) %MON advcfl_uvel_max              =   8.1893489788042E-03
(PID.TID 0000.0001) %MON advcfl_vvel_max              =   6.3378290216025E-03
(PID.TID 0000.0001) %MON advcfl_wvel_max              =   8.7549269897863E-09
(PID.TID 0000.0001) %MON advcfl_W_hf_max              =   0.0000000000000E+00
(PID.TID 0000.0001) %MON pe_b_mean                    =   1.0114274556397E-05
(PID.TID 0000.0001) %MON ke_max                       =   9.3278366321443E-03
(PID.TID 0000.0001) %MON ke_mean                      =   1.5087427735331E-03
(PID.TID 0000.0001) %MON ke_vol                       =   6.8893493896486E+15
(PID.TID 0000.0001) %MON vort_r_min                   =  -9.9043618546757E-07
(PID.TID 0000.0001) %MON vort_r_max                   =   2.9666616930369E-06
(PID.TID 0000.0001) %MON vort_a_mean                  =   1.0600000000000E-04
(PID.TID 0000.0001) %MON vort_a_sd                    =   3.5558104779120E-06
(PID.TID 0000.0001) %MON vort_p_mean                  =   1.1652272308690E-04
(PID.TID 0000.0001) %MON vort_p_sd                    =   4.1786958646255E-05
(PID.TID 0000.0001) %MON surfExpan_theta_mean         =  -1.2854626005618E-19
(PID.TID 0000.0001) %MON surfExpan_salt_mean          =  -1.9282191645844E-19
(PID.TID 0000.0001) // =======================================================
(PID.TID 0000.0001) // End MONITOR dynamic field statistics
(PID.TID 0000.0001) // =======================================================
 cg2d: Sum(rhs),rhsMax =  -3.83642059258143E-03  1.82664997382321E-01
 cg2d: Sum(rhs),rhsMax =  -3.83663181862947E-03  1.82670837467479E-01
 cg2d: Sum(rhs),rhsMax =  -3.83684340712134E-03  1.82676675291348E-01
 cg2d: Sum(rhs),rhsMax =  -3.83705535284715E-03  1.82682510856409E-01
 cg2d: Sum(rhs),rhsMax =  -3.83726765185722E-03  1.82688344165145E-01
 cg2d: Sum(rhs),rhsMax =  -3.83748029919795E-03  1.82694175220040E-01
 cg2d: Sum(rhs),rhsMax =  -3.83769329083429E-03  1.82700004023589E-01
 cg2d: Sum(rhs),rhsMax =  -3.83790662134021E-03  1.82705830578286E-01
 cg2d: Sum(rhs),rhsMax =  -3.83812028654584E-03  1.82711654886636E-01
 cg2d: Sum(rhs),rhsMax =  -3.83833428151828E-03  1.82717476951136E-01
 cg2d: Sum(rhs),rhsMax =  -3.83854860195468E-03  1.82723296774298E-01
 cg2d: Sum(rhs),rhsMax =  -3.83876324246869E-03  1.82729114358636E-01
 cg2d: Sum(rhs),rhsMax =  -3.83897819846843E-03  1.82734929706668E-01
 cg2d: Sum(rhs),rhsMax =  -3.83919346531607E-03  1.82740742820916E-01
 cg2d: Sum(rhs),rhsMax =  -3.83940903793285E-03  1.82746553703904E-01
 cg2d: Sum(rhs),rhsMax =  -3.83962491202545E-03  1.82752362358162E-01
 cg2d: Sum(rhs),rhsMax =  -3.83984108233877E-03  1.82758168786222E-01
 cg2d: Sum(rhs),rhsMax =  -3.84005754411404E-03  1.82763972990627E-01
 cg2d: Sum(rhs),rhsMax =  -3.84027429225145E-03  1.82769774973919E-01
 cg2d: Sum(rhs),rhsMax =  -3.84049132174713E-03  1.82775574738641E-01
 cg2d: Sum(rhs),rhsMax =  -3.84070862812425E-03  1.82781372287348E-01
 cg2d: Sum(rhs),rhsMax =  -3.84092620585596E-03  1.82787167622594E-01
 cg2d: Sum(rhs),rhsMax =  -3.84114405018005E-03  1.82792960746936E-01
 cg2d: Sum(rhs),rhsMax =  -3.84136215622644E-03  1.82798751662940E-01
 cg2d: Sum(rhs),rhsMax =  -3.84158051907469E-03  1.82804540373173E-01
 cg2d: Sum(rhs),rhsMax =  -3.84179913333131E-03  1.82810326880209E-01
 cg2d: Sum(rhs),rhsMax =  -3.84201799407358E-03  1.82816111186617E-01
 cg2d: Sum(rhs),rhsMax =  -3.84223709645871E-03  1.82821893294983E-01
 cg2d: Sum(rhs),rhsMax =  -3.84245643523847E-03  1.82827673207891E-01
 cg2d: Sum(rhs),rhsMax =  -3.84267600550594E-03  1.82833450927923E-01
 cg2d: Sum(rhs),rhsMax =  -3.84289580190536E-03  1.82839226457677E-01
 cg2d: Sum(rhs),rhsMax =  -3.84311581928615E-03  1.82844999799749E-01
 cg2d: Sum(rhs),rhsMax =  -3.84333605260921E-03  1.82850770956735E-01
 cg2d: Sum(rhs),rhsMax =  -3.84355649639185E-03  1.82856539931242E-01
 cg2d: Sum(rhs),rhsMax =  -3.84377714635917E-03  1.82862306725876E-01
 cg2d: Sum(rhs),rhsMax =  -3.84399799655924E-03  1.82868071343250E-01
 cg2d: Sum(rhs),rhsMax =  -3.84421904203577E-03  1.82873833785986E-01
 cg2d: Sum(rhs),rhsMax =  -3.84444027810938E-03  1.82879594056692E-01
 cg2d: Sum(rhs),rhsMax =  -3.84466169857963E-03  1.82885352158001E-01
 cg2d: Sum(rhs),rhsMax =  -3.84488329923427E-03  1.82891108092541E-01
 cg2d: Sum(rhs),rhsMax =  -3.84510507404474E-03  1.82896861862939E-01
 cg2d: Sum(rhs),rhsMax =  -3.84532701826336E-03  1.82902613471833E-01
 cg2d: Sum(rhs),rhsMax =  -3.84554912664648E-03  1.82908362921865E-01
 cg2d: Sum(rhs),rhsMax =  -3.84577139414505E-03  1.82914110215675E-01
 cg2d: Sum(rhs),rhsMax =  -3.84599381504143E-03  1.82919855355914E-01
 cg2d: Sum(rhs),rhsMax =  -3.84621638438875E-03  1.82925598345230E-01
 cg2d: Sum(rhs),rhsMax =  -3.84643909725586E-03  1.82931339186283E-01
 cg2d: Sum(rhs),rhsMax =  -3.84666194760922E-03  1.82937077881729E-01
 cg2d: Sum(rhs),rhsMax =  -3.84688493117230E-03  1.82942814434228E-01
 cg2d: Sum(rhs),rhsMax =  -3.84710804183908E-03  1.82948548846450E-01
 cg2d: Sum(rhs),rhsMax =  -3.84733127459867E-03  1.82954281121066E-01
 cg2d: Sum(rhs),rhsMax =  -3.84755462435093E-03  1.82960011260753E-01
 cg2d: Sum(rhs),rhsMax =  -3.84777808581916E-03  1.82965739268184E-01
 cg2d: Sum(rhs),rhsMax =  -3.84800165351035E-03  1.82971465146045E-01
 cg2d: Sum(rhs),rhsMax =  -3.84822532241198E-03  1.82977188897019E-01
 cg2d: Sum(rhs),rhsMax =  -3.84844908728743E-03  1.82982910523798E-01
 cg2d: Sum(rhs),rhsMax =  -3.84867294324790E-03  1.82988630029074E-01
 cg2d: Sum(rhs),rhsMax =  -3.84889688399375E-03  1.82994347415544E-01
 cg2d: Sum(rhs),rhsMax =  -3.84912090512260E-03  1.83000062685910E-01
 cg2d: Sum(rhs),rhsMax =  -3.84934500094161E-03  1.83005775842874E-01
 cg2d: Sum(rhs),rhsMax =  -3.84956916668280E-03  1.83011486889149E-01
 cg2d: Sum(rhs),rhsMax =  -3.84979339674894E-03  1.83017195827440E-01
 cg2d: Sum(rhs),rhsMax =  -3.85001768652775E-03  1.83022902660471E-01
 cg2d: Sum(rhs),rhsMax =  -3.85024202989109E-03  1.83028607390954E-01
 cg2d: Sum(rhs),rhsMax =  -3.85046642195237E-03  1.83034310021617E-01
 cg2d: Sum(rhs),rhsMax =  -3.85069085784444E-03  1.83040010555182E-01
 cg2d: Sum(rhs),rhsMax =  -3.85091533139235E-03  1.83045708994386E-01
 cg2d: Sum(rhs),rhsMax =  -3.85113983854356E-03  1.83051405341958E-01
 cg2d: Sum(rhs),rhsMax =  -3.85136437373637E-03  1.83057099600634E-01
 cg2d: Sum(rhs),rhsMax =  -3.85158893151002E-03  1.83062791773160E-01
 cg2d: Sum(rhs),rhsMax =  -3.85181350666655E-03  1.83068481862276E-01
 cg2d: Sum(rhs),rhsMax =  -3.85203809419418E-03  1.83074169870733E-01
(PID.TID 0000.0001)      cg2d_init_res =   6.83361116103748E-04
(PID.TID 0000.0001)      cg2d_iters(min,last) =      -1      73
(PID.TID 0000.0001)      cg2d_last_res =   9.75496879964458E-08
(PID.TID 0000.0001) // =======================================================
(PID.TID 0000.0001) // Begin MONITOR dynamic field statistics
(PID.TID 0000.0001) // =======================================================
(PID.TID 0000.0001) %MON time_tsnumber                =                 10728
(PID.TID 0000.0001) %MON time_secondsf                =   1.2873600000000E+07
(PID.TID 0000.0001) %MON dynstat_eta_max              =   2.4840515069606E-01
(PID.TID 0000.0001) %MON dynstat_eta_min              =  -8.8840527197416E-02
(PID.TID 0000.0001) %MON dynstat_eta_mean             =   3.5245515738730E-06
(PID.TID 0000.0001) %MON dynstat_eta_sd               =   9.9813042554789E-02
(PID.TID 0000.0001) %MON dynstat_eta_del2             =   2.7521214105004E-05
(PID.TID 0000.0001) %MON dynstat_uvel_max             =   1.3693286722566E-01
(PID.TID 0000.0001) %MON dynstat_uvel_min             =  -9.1489345764907E-02
(PID.TID 0000.0001) %MON dynstat_uvel_mean            =  -4.2927801715279E-08
(PID.TID 0000.0001) %MON dynstat_uvel_sd              =   4.1281292585017E-02
(PID.TID 0000.0001) %MON dynstat_uvel_del2            =   6.5746845589819E-05
(PID.TID 0000.0001) %MON dynstat_vvel_max             =   8.0061082085520E-02
(PID.TID 0000.0001) %MON dynstat_vvel_min             =  -1.0605816482960E-01
(PID.TID 0000.0001) %MON dynstat_vvel_mean            =   1.8077000585555E-07
(PID.TID 0000.0001) %MON dynstat_vvel_sd              =   3.7398029291090E-02
(PID.TID 0000.0001) %MON dynstat_vvel_del2            =   4.1065325972405E-05
(PID.TID 0000.0001) %MON dynstat_wvel_max             =   1.8245834980044E-08
(PID.TID 0000.0001) %MON dynstat_wvel_min             =  -9.4870589656057E-09
(PID.TID 0000.0001) %MON dynstat_wvel_mean            =   3.2936605344326E-21
(PID.TID 0000.0001) %MON dynstat_wvel_sd              =   5.9481231961769E-09
(PID.TID 0000.0001) %MON dynstat_wvel_del2            =   2.1976909220695E-12
(PID.TID 0000.0001) %MON dynstat_theta_max            =   2.0000000000000E+01
(PID.TID 0000.0001) %MON dynstat_theta_min            =   2.0000000000000E+01
(PID.TID 0000.0001) %MON dynstat_theta_mean           =   2.0000000000000E+01
(PID.TID 0000.0001) %MON dynstat_theta_sd             =   3.8014036363165E-13
(PID.TID 0000.0001) %MON dynstat_theta_del2           =   0.0000000000000E+00
(PID.TID 0000.0001) %MON dynstat_salt_max             =   3.0000000000000E+01
(PID.TID 0000.0001) %MON dynstat_salt_min             =   3.0000000000000E+01
(PID.TID 0000.0001) %MON dynstat_salt_mean            =   2.9999999999999E+01
(PID.TID 0000.0001) %MON dynstat_salt_sd              =   5.5777604757167E-13
(PID.TID 0000.0001) %MON dynstat_salt_del2            =   0.0000000000000E+00
(PID.TID 0000.0001) %MON trAdv_CFL_u_max              =   8.2145266953445E-03
(PID.TID 0000.0001) %MON trAdv_CFL_v_max              =   6.3548499154650E-03
(PID.TID 0000.0001) %MON trAdv_CFL_w_max              =   4.7501947993029E-09
(PID.TID 0000.0001) %MON advcfl_uvel_max              =   8.2159720335398E-03
(PID.TID 0000.0001) %MON advcfl_vvel_max              =   6.3634898897760E-03
(PID.TID 0000.0001) %MON advcfl_wvel_max              =   8.7580007904209E-09
(PID.TID 0000.0001) %MON advcfl_W_hf_max              =   0.0000000000000E+00
(PID.TID 0000.0001) %MON pe_b_mean                    =   1.0214047716713E-05
(PID.TID 0000.0001) %MON ke_max                       =   9.3894748083418E-03
(PID.TID 0000.0001) %MON ke_mean                      =   1.5228511460515E-03
(PID.TID 0000.0001) %MON ke_vol                       =   6.8893493896486E+15
(PID.TID 0000.0001) %MON vort_r_min                   =  -9.9008202428583E-07
(PID.TID 0000.0001) %MON vort_r_max                   =   2.9754349203082E-06
(PID.TID 0000.0001) %MON vort_a_mean                  =   1.0600000000000E-04
(PID.TID 0000.0001) %MON vort_a_sd                    =   3.5560504003202E-06
(PID.TID 0000.0001) %MON vort_p_mean                  =   1.1652272308690E-04
(PID.TID 0000.0001) %MON vort_p_sd                    =   4.1787030308172E-05
(PID.TID 0000.0001) %MON surfExpan_theta_mean         =   6.5890285820084E-20
(PID.TID 0000.0001) %MON surfExpan_salt_mean          =   9.8848692194527E-20
(PID.TID 0000.0001) // =======================================================
(PID.TID 0000.0001) // End MONITOR dynamic field statistics
(PID.TID 0000.0001) // =======================================================
 cg2d: Sum(rhs),rhsMax =  -3.85226268899462E-03  1.83079855801286E-01
 cg2d: Sum(rhs),rhsMax =  -3.85248728589446E-03  1.83085539656681E-01
 cg2d: Sum(rhs),rhsMax =  -3.85271187946741E-03  1.83091221439689E-01
 cg2d: Sum(rhs),rhsMax =  -3.85293646527595E-03  1.83096901153064E-01
 cg2d: Sum(rhs),rhsMax =  -3.85316103744366E-03  1.83102578799573E-01
 cg2d: Sum(rhs),rhsMax =  -3.85338559128303E-03  1.83108254381990E-01
 cg2d: Sum(rhs),rhsMax =  -3.85361012156906E-03  1.83113927903084E-01
 cg2d: Sum(rhs),rhsMax =  -3.85383462311661E-03  1.83119599365637E-01
 cg2d: Sum(rhs),rhsMax =  -3.85405909092532E-03  1.83125268772421E-01
 cg2d: Sum(rhs),rhsMax =  -3.85428352046858E-03  1.83130936126225E-01
 cg2d: Sum(rhs),rhsMax =  -3.85450790581170E-03  1.83136601429836E-01
 cg2d: Sum(rhs),rhsMax =  -3.85473224258444E-03  1.83142264686042E-01
 cg2d: Sum(rhs),rhsMax =  -3.85495652523507E-03  1.83147925897639E-01
 cg2d: Sum(rhs),rhsMax =  -3.85518074923070E-03  1.83153585067421E-01
 cg2d: Sum(rhs),rhsMax =  -3.85540490971707E-03  1.83159242198194E-01
 cg2d: Sum(rhs),rhsMax =  -3.85562900145603E-03  1.83164897292760E-01
 cg2d: Sum(rhs),rhsMax =  -3.85585301929338E-03  1.83170550353925E-01
 cg2d: Sum(rhs),rhsMax =  -3.85607695876800E-03  1.83176201384500E-01
 cg2d: Sum(rhs),rhsMax =  -3.85630081447485E-03  1.83181850387303E-01
 cg2d: Sum(rhs),rhsMax =  -3.85652458196149E-03  1.83187497365146E-01
 cg2d: Sum(rhs),rhsMax =  -3.85674825606846E-03  1.83193142320859E-01
 cg2d: Sum(rhs),rhsMax =  -3.85697183248567E-03  1.83198785257253E-01
 cg2d: Sum(rhs),rhsMax =  -3.85719530543016E-03  1.83204426177168E-01
 cg2d: Sum(rhs),rhsMax =  -3.85741867119411E-03  1.83210065083428E-01
 cg2d: Sum(rhs),rhsMax =  -3.85764192418790E-03  1.83215701978870E-01
 cg2d: Sum(rhs),rhsMax =  -3.85786506015289E-03  1.83221336866333E-01
 cg2d: Sum(rhs),rhsMax =  -3.85808807379510E-03  1.83226969748655E-01
 cg2d: Sum(rhs),rhsMax =  -3.85831096099784E-03  1.83232600628683E-01
 cg2d: Sum(rhs),rhsMax =  -3.85853371683660E-03  1.83238229509259E-01
 cg2d: Sum(rhs),rhsMax =  -3.85875633650670E-03  1.83243856393243E-01
 cg2d: Sum(rhs),rhsMax =  -3.85897881556216E-03  1.83249481283481E-01
 cg2d: Sum(rhs),rhsMax =  -3.85920114956010E-03  1.83255104182833E-01
 cg2d: Sum(rhs),rhsMax =  -3.85942333350536E-03  1.83260725094157E-01
 cg2d: Sum(rhs),rhsMax =  -3.85964536306813E-03  1.83266344020317E-01
 cg2d: Sum(rhs),rhsMax =  -3.85986723359271E-03  1.83271960964188E-01
 cg2d: Sum(rhs),rhsMax =  -3.86008894077946E-03  1.83277575928626E-01
 cg2d: Sum(rhs),rhsMax =  -3.86031048006338E-03  1.83283188916518E-01
 cg2d: Sum(rhs),rhsMax =  -3.86053184674437E-03  1.83288799930729E-01
 cg2d: Sum(rhs),rhsMax =  -3.86075303698355E-03  1.83294408974146E-01
 cg2d: Sum(rhs),rhsMax =  -3.86097404584014E-03  1.83300016049647E-01
 cg2d: Sum(rhs),rhsMax =  -3.86119486904274E-03  1.83305621160120E-01
 cg2d: Sum(rhs),rhsMax =  -3.86141550264916E-03  1.83311224308456E-01
 cg2d: Sum(rhs),rhsMax =  -3.86163594170118E-03  1.83316825497544E-01
 cg2d: Sum(rhs),rhsMax =  -3.86185618250443E-03  1.83322424730278E-01
 cg2d: Sum(rhs),rhsMax =  -3.86207622038690E-03  1.83328022009556E-01
 cg2d: Sum(rhs),rhsMax =  -3.86229605163675E-03  1.83333617338283E-01
 cg2d: Sum(rhs),rhsMax =  -3.86251567192801E-03  1.83339210719360E-01
 cg2d: Sum(rhs),rhsMax =  -3.86273507692980E-03  1.83344802155696E-01
 cg2d: Sum(rhs),rhsMax =  -3.86295426263655E-03  1.83350391650202E-01
 cg2d: Sum(rhs),rhsMax =  -3.86317322503475E-03  1.83355979205790E-01
 cg2d: Sum(rhs),rhsMax =  -3.86339195993556E-03  1.83361564825372E-01
 cg2d: Sum(rhs),rhsMax =  -3.86361046324881E-03  1.83367148511875E-01
 cg2d: Sum(rhs),rhsMax =  -3.86382873127933E-03  1.83372730268219E-01
 cg2d: Sum(rhs),rhsMax =  -3.86404676032146E-03  1.83378310097327E-01
 cg2d: Sum(rhs),rhsMax =  -3.86426454606292E-03  1.83383888002132E-01
 cg2d: Sum(rhs),rhsMax =  -3.86448208486156E-03  1.83389463985559E-01
 cg2d: Sum(rhs),rhsMax =  -3.86469937280081E-03  1.83395038050548E-01
 cg2d: Sum(rhs),rhsMax =  -3.86491640601129E-03  1.83400610200035E-01
 cg2d: Sum(rhs),rhsMax =  -3.86513318112387E-03  1.83406180436958E-01
 cg2d: Sum(rhs),rhsMax =  -3.86534969417952E-03  1.83411748764259E-01
 cg2d: Sum(rhs),rhsMax =  -3.86556594175662E-03  1.83417315184889E-01
 cg2d: Sum(rhs),rhsMax =  -3.86578191998366E-03  1.83422879701794E-01
 cg2d: Sum(rhs),rhsMax =  -3.86599762553608E-03  1.83428442317926E-01
 cg2d: Sum(rhs),rhsMax =  -3.86621305458179E-03  1.83434003036238E-01
 cg2d: Sum(rhs),rhsMax =  -3.86642820368895E-03  1.83439561859690E-01
 cg2d: Sum(rhs),rhsMax =  -3.86664306968901E-03  1.83445118791243E-01
 cg2d: Sum(rhs),rhsMax =  -3.86685764911437E-03  1.83450673833856E-01
 cg2d: Sum(rhs),rhsMax =  -3.86707193822338E-03  1.83456226990498E-01
 cg2d: Sum(rhs),rhsMax =  -3.86728593433961E-03  1.83461778264141E-01
 cg2d: Sum(rhs),rhsMax =  -3.86749963388176E-03  1.83467327657746E-01
 cg2d: Sum(rhs),rhsMax =  -3.86771303340870E-03  1.83472875174303E-01
 cg2d: Sum(rhs),rhsMax =  -3.86792613009564E-03  1.83478420816775E-01
(PID.TID 0000.0001)      cg2d_init_res =   6.76735887784089E-04
(PID.TID 0000.0001)      cg2d_iters(min,last) =      -1      73
(PID.TID 0000.0001)      cg2d_last_res =   9.78574566002059E-08
(PID.TID 0000.0001) // =======================================================
(PID.TID 0000.0001) // Begin MONITOR dynamic field statistics
(PID.TID 0000.0001) // =======================================================
(PID.TID 0000.0001) %MON time_tsnumber                =                 10800
(PID.TID 0000.0001) %MON time_secondsf                =   1.2960000000000E+07
(PID.TID 0000.0001) %MON dynstat_eta_max              =   2.4974502909123E-01
(PID.TID 0000.0001) %MON dynstat_eta_min              =  -8.9091390532304E-02
(PID.TID 0000.0001) %MON dynstat_eta_mean             =   3.5468889579432E-06
(PID.TID 0000.0001) %MON dynstat_eta_sd               =   1.0029899213594E-01
(PID.TID 0000.0001) %MON dynstat_eta_del2             =   2.7624969557413E-05
(PID.TID 0000.0001) %MON dynstat_uvel_max             =   1.3736637085535E-01
(PID.TID 0000.0001) %MON dynstat_uvel_min             =  -9.2000034771245E-02
(PID.TID 0000.0001) %MON dynstat_uvel_mean            =  -3.3188229643949E-08
(PID.TID 0000.0001) %MON dynstat_uvel_sd              =   4.1473697153371E-02
(PID.TID 0000.0001) %MON dynstat_uvel_del2            =   6.5869578385929E-05
(PID.TID 0000.0001) %MON dynstat_vvel_max             =   7.9940585819965E-02
(PID.TID 0000.0001) %MON dynstat_vvel_min             =  -1.0648118555126E-01
(PID.TID 0000.0001) %MON dynstat_vvel_mean            =   1.8293684907395E-07
(PID.TID 0000.0001) %MON dynstat_vvel_sd              =   3.7568955454197E-02
(PID.TID 0000.0001) %MON dynstat_vvel_del2            =   4.1083459136299E-05
(PID.TID 0000.0001) %MON dynstat_wvel_max             =   1.8258364118519E-08
(PID.TID 0000.0001) %MON dynstat_wvel_min             =  -9.4874059816357E-09
(PID.TID 0000.0001) %MON dynstat_wvel_mean            =  -8.6164833293070E-22
(PID.TID 0000.0001) %MON dynstat_wvel_sd              =   5.9242271285605E-09
(PID.TID 0000.0001) %MON dynstat_wvel_del2            =   2.1732231494764E-12
(PID.TID 0000.0001) %MON dynstat_theta_max            =   2.0000000000000E+01
(PID.TID 0000.0001) %MON dynstat_theta_min            =   2.0000000000000E+01
(PID.TID 0000.0001) %MON dynstat_theta_mean           =   2.0000000000000E+01
(PID.TID 0000.0001) %MON dynstat_theta_sd             =   3.8014036363165E-13
(PID.TID 0000.0001) %MON dynstat_theta_del2           =   0.0000000000000E+00
(PID.TID 0000.0001) %MON dynstat_salt_max             =   3.0000000000000E+01
(PID.TID 0000.0001) %MON dynstat_salt_min             =   3.0000000000000E+01
(PID.TID 0000.0001) %MON dynstat_salt_mean            =   2.9999999999999E+01
(PID.TID 0000.0001) %MON dynstat_salt_sd              =   5.5777604757167E-13
(PID.TID 0000.0001) %MON dynstat_salt_del2            =   0.0000000000000E+00
(PID.TID 0000.0001) %MON trAdv_CFL_u_max              =   8.2405421275693E-03
(PID.TID 0000.0001) %MON trAdv_CFL_v_max              =   6.3802009273559E-03
(PID.TID 0000.0001) %MON trAdv_CFL_w_max              =   4.7616602587780E-09
(PID.TID 0000.0001) %MON advcfl_uvel_max              =   8.2419822513207E-03
(PID.TID 0000.0001) %MON advcfl_vvel_max              =   6.3888711330755E-03
(PID.TID 0000.0001) %MON advcfl_wvel_max              =   8.7640147768892E-09
(PID.TID 0000.0001) %MON advcfl_W_hf_max              =   0.0000000000000E+00
(PID.TID 0000.0001) %MON pe_b_mean                    =   1.0313746007781E-05
(PID.TID 0000.0001) %MON ke_max                       =   9.4498757201271E-03
(PID.TID 0000.0001) %MON ke_mean                      =   1.5369550646228E-03
(PID.TID 0000.0001) %MON ke_vol                       =   6.8893493896486E+15
(PID.TID 0000.0001) %MON vort_r_min                   =  -9.9148226119670E-07
(PID.TID 0000.0001) %MON vort_r_max                   =   2.9839774876683E-06
(PID.TID 0000.0001) %MON vort_a_mean                  =   1.0600000000000E-04
(PID.TID 0000.0001) %MON vort_a_sd                    =   3.5562892847315E-06
(PID.TID 0000.0001) %MON vort_p_mean                  =   1.1652272308690E-04
(PID.TID 0000.0001) %MON vort_p_sd                    =   4.1787099565631E-05
(PID.TID 0000.0001) %MON surfExpan_theta_mean         =  -1.7240293143712E-20
(PID.TID 0000.0001) %MON surfExpan_salt_mean          =  -2.5855386967224E-20
(PID.TID 0000.0001) // =======================================================
(PID.TID 0000.0001) // End MONITOR dynamic field statistics
(PID.TID 0000.0001) // =======================================================
 cg2d: Sum(rhs),rhsMax =  -3.86813892074273E-03  1.83483964588153E-01
 cg2d: Sum(rhs),rhsMax =  -3.86835140196415E-03  1.83489506491413E-01
 cg2d: Sum(rhs),rhsMax =  -3.86856357133156E-03  1.83495046529542E-01
 cg2d: Sum(rhs),rhsMax =  -3.86877542541391E-03  1.83500584705530E-01
 cg2d: Sum(rhs),rhsMax =  -3.86898696147258E-03  1.83506121022365E-01
 cg2d: Sum(rhs),rhsMax =  -3.86919817606248E-03  1.83511655483047E-01
 cg2d: Sum(rhs),rhsMax =  -3.86940906719105E-03  1.83517188090565E-01
 cg2d: Sum(rhs),rhsMax =  -3.86961963199451E-03  1.83522718847924E-01
 cg2d: Sum(rhs),rhsMax =  -3.86982986729334E-03  1.83528247758122E-01
 cg2d: Sum(rhs),rhsMax =  -3.87003977045039E-03  1.83533774824164E-01
 cg2d: Sum(rhs),rhsMax =  -3.87024933915410E-03  1.83539300049058E-01
 cg2d: Sum(rhs),rhsMax =  -3.87045857040444E-03  1.83544823435818E-01
 cg2d: Sum(rhs),rhsMax =  -3.87066746201481E-03  1.83550344987450E-01
 cg2d: Sum(rhs),rhsMax =  -3.87087601184244E-03  1.83555864706971E-01
 cg2d: Sum(rhs),rhsMax =  -3.87108421669775E-03  1.83561382597402E-01
 cg2d: Sum(rhs),rhsMax =  -3.87129207460297E-03  1.83566898661762E-01
 cg2d: Sum(rhs),rhsMax =  -3.87149958346237E-03  1.83572412903073E-01
 cg2d: Sum(rhs),rhsMax =  -3.87170674087422E-03  1.83577925324359E-01
 cg2d: Sum(rhs),rhsMax =  -3.87191354451604E-03  1.83583435928653E-01
 cg2d: Sum(rhs),rhsMax =  -3.87211999239252E-03  1.83588944718983E-01
 cg2d: Sum(rhs),rhsMax =  -3.87232608222180E-03  1.83594451698379E-01
 cg2d: Sum(rhs),rhsMax =  -3.87253181233349E-03  1.83599956869886E-01
 cg2d: Sum(rhs),rhsMax =  -3.87273718048406E-03  1.83605460236533E-01
 cg2d: Sum(rhs),rhsMax =  -3.87294218519772E-03  1.83610961801368E-01
 cg2d: Sum(rhs),rhsMax =  -3.87314682392403E-03  1.83616461567431E-01
 cg2d: Sum(rhs),rhsMax =  -3.87335109532960E-03  1.83621959537766E-01
 cg2d: Sum(rhs),rhsMax =  -3.87355499797746E-03  1.83627455715428E-01
 cg2d: Sum(rhs),rhsMax =  -3.87375852975156E-03  1.83632950103463E-01
 cg2d: Sum(rhs),rhsMax =  -3.87396168915926E-03  1.83638442704927E-01
 cg2d: Sum(rhs),rhsMax =  -3.87416447451543E-03  1.83643933522875E-01
 cg2d: Sum(rhs),rhsMax =  -3.87436688459505E-03  1.83649422560363E-01
 cg2d: Sum(rhs),rhsMax =  -3.87456891819891E-03  1.83654909820455E-01
 cg2d: Sum(rhs),rhsMax =  -3.87477057353403E-03  1.83660395306217E-01
 cg2d: Sum(rhs),rhsMax =  -3.87497184934478E-03  1.83665879020706E-01
 cg2d: Sum(rhs),rhsMax =  -3.87517274494525E-03  1.83671360967002E-01
 cg2d: Sum(rhs),rhsMax =  -3.87537325868055E-03  1.83676841148165E-01
 cg2d: Sum(rhs),rhsMax =  -3.87557338984517E-03  1.83682319567273E-01
 cg2d: Sum(rhs),rhsMax =  -3.87577313757791E-03  1.83687796227405E-01
 cg2d: Sum(rhs),rhsMax =  -3.87597250029898E-03  1.83693271131628E-01
 cg2d: Sum(rhs),rhsMax =  -3.87617147687723E-03  1.83698744283031E-01
 cg2d: Sum(rhs),rhsMax =  -3.87637006733922E-03  1.83704215684695E-01
 cg2d: Sum(rhs),rhsMax =  -3.87656827064371E-03  1.83709685339704E-01
 cg2d: Sum(rhs),rhsMax =  -3.87676608613979E-03  1.83715153251144E-01
 cg2d: Sum(rhs),rhsMax =  -3.87696351326229E-03  1.83720619422108E-01
 cg2d: Sum(rhs),rhsMax =  -3.87716055146382E-03  1.83726083855683E-01
 cg2d: Sum(rhs),rhsMax =  -3.87735719993375E-03  1.83731546554967E-01
 cg2d: Sum(rhs),rhsMax =  -3.87755345894211E-03  1.83737007523053E-01
 cg2d: Sum(rhs),rhsMax =  -3.87774932755615E-03  1.83742466763045E-01
 cg2d: Sum(rhs),rhsMax =  -3.87794480599073E-03  1.83747924278038E-01
 cg2d: Sum(rhs),rhsMax =  -3.87813989371689E-03  1.83753380071137E-01
 cg2d: Sum(rhs),rhsMax =  -3.87833459076422E-03  1.83758834145452E-01
 cg2d: Sum(rhs),rhsMax =  -3.87852889712025E-03  1.83764286504084E-01
 cg2d: Sum(rhs),rhsMax =  -3.87872281266860E-03  1.83769737150148E-01
 cg2d: Sum(rhs),rhsMax =  -3.87891633774130E-03  1.83775186086753E-01
 cg2d: Sum(rhs),rhsMax =  -3.87910947258238E-03  1.83780633317012E-01
 cg2d: Sum(rhs),rhsMax =  -3.87930221715434E-03  1.83786078844048E-01
 cg2d: Sum(rhs),rhsMax =  -3.87949457230640E-03  1.83791522670971E-01
 cg2d: Sum(rhs),rhsMax =  -3.87968653804554E-03  1.83796964800907E-01
 cg2d: Sum(rhs),rhsMax =  -3.87987811493412E-03  1.83802405236980E-01
 cg2d: Sum(rhs),rhsMax =  -3.88006930338530E-03  1.83807843982314E-01
 cg2d: Sum(rhs),rhsMax =  -3.88026010444290E-03  1.83813281040038E-01
 cg2d: Sum(rhs),rhsMax =  -3.88045051880085E-03  1.83818716413283E-01
 cg2d: Sum(rhs),rhsMax =  -3.88064054687138E-03  1.83824150105170E-01
 cg2d: Sum(rhs),rhsMax =  -3.88083018975865E-03  1.83829582118840E-01
 cg2d: Sum(rhs),rhsMax =  -3.88101944893920E-03  1.83835012457432E-01
 cg2d: Sum(rhs),rhsMax =  -3.88120832453436E-03  1.83840441124085E-01
 cg2d: Sum(rhs),rhsMax =  -3.88139681784444E-03  1.83845868121929E-01
 cg2d: Sum(rhs),rhsMax =  -3.88158493110011E-03  1.83851293454118E-01
 cg2d: Sum(rhs),rhsMax =  -3.88177266452383E-03  1.83856717123785E-01
 cg2d: Sum(rhs),rhsMax =  -3.88196002000172E-03  1.83862139134084E-01
 cg2d: Sum(rhs),rhsMax =  -3.88214699839999E-03  1.83867559488161E-01
 cg2d: Sum(rhs),rhsMax =  -3.88233360178364E-03  1.83872978189167E-01
(PID.TID 0000.0001)      cg2d_init_res =   6.70383978455590E-04
(PID.TID 0000.0001)      cg2d_iters(min,last) =      -1      73
(PID.TID 0000.0001)      cg2d_last_res =   9.81401755616834E-08
(PID.TID 0000.0001) // =======================================================
(PID.TID 0000.0001) // Begin MONITOR dynamic field statistics
(PID.TID 0000.0001) // =======================================================
(PID.TID 0000.0001) %MON time_tsnumber                =                 10872
(PID.TID 0000.0001) %MON time_secondsf                =   1.3046400000000E+07
(PID.TID 0000.0001) %MON dynstat_eta_max              =   2.5107716722033E-01
(PID.TID 0000.0001) %MON dynstat_eta_min              =  -8.9334998677398E-02
(PID.TID 0000.0001) %MON dynstat_eta_mean             =   3.5677285311238E-06
(PID.TID 0000.0001) %MON dynstat_eta_sd               =   1.0078210337537E-01
(PID.TID 0000.0001) %MON dynstat_eta_del2             =   2.7728746666888E-05
(PID.TID 0000.0001) %MON dynstat_uvel_max             =   1.3778942239127E-01
(PID.TID 0000.0001) %MON dynstat_uvel_min             =  -9.2534926589825E-02
(PID.TID 0000.0001) %MON dynstat_uvel_mean            =  -2.2663170308367E-08
(PID.TID 0000.0001) %MON dynstat_uvel_sd              =   4.1667209715797E-02
(PID.TID 0000.0001) %MON dynstat_uvel_del2            =   6.5994065029368E-05
(PID.TID 0000.0001) %MON dynstat_vvel_max             =   7.9835777040730E-02
(PID.TID 0000.0001) %MON dynstat_vvel_min             =  -1.0690210742727E-01
(PID.TID 0000.0001) %MON dynstat_vvel_mean            =   1.8381423586044E-07
(PID.TID 0000.0001) %MON dynstat_vvel_sd              =   3.7736830375348E-02
(PID.TID 0000.0001) %MON dynstat_vvel_del2            =   4.1097548875054E-05
(PID.TID 0000.0001) %MON dynstat_wvel_max             =   1.8243507852312E-08
(PID.TID 0000.0001) %MON dynstat_wvel_min             =  -9.4568948892993E-09
(PID.TID 0000.0001) %MON dynstat_wvel_mean            =  -6.4868297360792E-21
(PID.TID 0000.0001) %MON dynstat_wvel_sd              =   5.8994218380973E-09
(PID.TID 0000.0001) %MON dynstat_wvel_del2            =   2.1496786973005E-12
(PID.TID 0000.0001) %MON dynstat_theta_max            =   2.0000000000000E+01
(PID.TID 0000.0001) %MON dynstat_theta_min            =   2.0000000000000E+01
(PID.TID 0000.0001) %MON dynstat_theta_mean           =   2.0000000000000E+01
(PID.TID 0000.0001) %MON dynstat_theta_sd             =   3.8014036363165E-13
(PID.TID 0000.0001) %MON dynstat_theta_del2           =   0.0000000000000E+00
(PID.TID 0000.0001) %MON dynstat_salt_max             =   3.0000000000000E+01
(PID.TID 0000.0001) %MON dynstat_salt_min             =   3.0000000000000E+01
(PID.TID 0000.0001) %MON dynstat_salt_mean            =   2.9999999999999E+01
(PID.TID 0000.0001) %MON dynstat_salt_sd              =   5.5777604757167E-13
(PID.TID 0000.0001) %MON dynstat_salt_del2            =   0.0000000000000E+00
(PID.TID 0000.0001) %MON trAdv_CFL_u_max              =   8.2659306432280E-03
(PID.TID 0000.0001) %MON trAdv_CFL_v_max              =   6.4054240698936E-03
(PID.TID 0000.0001) %MON trAdv_CFL_w_max              =   4.7650446089918E-09
(PID.TID 0000.0001) %MON advcfl_uvel_max              =   8.2673653434761E-03
(PID.TID 0000.0001) %MON advcfl_vvel_max              =   6.4141264456360E-03
(PID.TID 0000.0001) %MON advcfl_wvel_max              =   8.7568837691098E-09
(PID.TID 0000.0001) %MON advcfl_W_hf_max              =   0.0000000000000E+00
(PID.TID 0000.0001) %MON pe_b_mean                    =   1.0413341957695E-05
(PID.TID 0000.0001) %MON ke_max                       =   9.5089819764770E-03
(PID.TID 0000.0001) %MON ke_mean                      =   1.5510562865343E-03
(PID.TID 0000.0001) %MON ke_vol                       =   6.8893493896486E+15
(PID.TID 0000.0001) %MON vort_r_min                   =  -9.9656252489437E-07
(PID.TID 0000.0001) %MON vort_r_max                   =   2.9922875462682E-06
(PID.TID 0000.0001) %MON vort_a_mean                  =   1.0600000000000E-04
(PID.TID 0000.0001) %MON vort_a_sd                    =   3.5565268450708E-06
(PID.TID 0000.0001) %MON vort_p_mean                  =   1.1652272308690E-04
(PID.TID 0000.0001) %MON vort_p_sd                    =   4.1787166172943E-05
(PID.TID 0000.0001) %MON surfExpan_theta_mean         =  -1.2972110299516E-19
(PID.TID 0000.0001) %MON surfExpan_salt_mean          =  -1.9454754844143E-19
(PID.TID 0000.0001) // =======================================================
(PID.TID 0000.0001) // End MONITOR dynamic field statistics
(PID.TID 0000.0001) // =======================================================
 cg2d: Sum(rhs),rhsMax =  -3.88251983170453E-03  1.83878395240252E-01
 cg2d: Sum(rhs),rhsMax =  -3.88270568987562E-03  1.83883810644575E-01
 cg2d: Sum(rhs),rhsMax =  -3.88289117779418E-03  1.83889224405285E-01
 cg2d: Sum(rhs),rhsMax =  -3.88307629775379E-03  1.83894636525550E-01
 cg2d: Sum(rhs),rhsMax =  -3.88326105132298E-03  1.83900047008523E-01
 cg2d: Sum(rhs),rhsMax =  -3.88344544083693E-03  1.83905455857366E-01
 cg2d: Sum(rhs),rhsMax =  -3.88362946818100E-03  1.83910863075248E-01
 cg2d: Sum(rhs),rhsMax =  -3.88381313555385E-03  1.83916268665333E-01
 cg2d: Sum(rhs),rhsMax =  -3.88399644547507E-03  1.83921672630789E-01
 cg2d: Sum(rhs),rhsMax =  -3.88417940002952E-03  1.83927074974786E-01
 cg2d: Sum(rhs),rhsMax =  -3.88436200216230E-03  1.83932475700498E-01
 cg2d: Sum(rhs),rhsMax =  -3.88454425385709E-03  1.83937874811097E-01
 cg2d: Sum(rhs),rhsMax =  -3.88472615789429E-03  1.83943272309758E-01
 cg2d: Sum(rhs),rhsMax =  -3.88490771702079E-03  1.83948668199661E-01
 cg2d: Sum(rhs),rhsMax =  -3.88508893420739E-03  1.83954062483981E-01
 cg2d: Sum(rhs),rhsMax =  -3.88526981246862E-03  1.83959455165906E-01
 cg2d: Sum(rhs),rhsMax =  -3.88545035393219E-03  1.83964846248615E-01
 cg2d: Sum(rhs),rhsMax =  -3.88563056258367E-03  1.83970235735298E-01
 cg2d: Sum(rhs),rhsMax =  -3.88581044130774E-03  1.83975623629137E-01
 cg2d: Sum(rhs),rhsMax =  -3.88598999329574E-03  1.83981009933318E-01
 cg2d: Sum(rhs),rhsMax =  -3.88616922180825E-03  1.83986394651041E-01
 cg2d: Sum(rhs),rhsMax =  -3.88634813040112E-03  1.83991777785496E-01
 cg2d: Sum(rhs),rhsMax =  -3.88652672294540E-03  1.83997159339870E-01
 cg2d: Sum(rhs),rhsMax =  -3.88670500195278E-03  1.84002539317371E-01
 cg2d: Sum(rhs),rhsMax =  -3.88688297210949E-03  1.84007917721187E-01
 cg2d: Sum(rhs),rhsMax =  -3.88706063687428E-03  1.84013294554516E-01
 cg2d: Sum(rhs),rhsMax =  -3.88723800026201E-03  1.84018669820567E-01
 cg2d: Sum(rhs),rhsMax =  -3.88741506583644E-03  1.84024043522543E-01
 cg2d: Sum(rhs),rhsMax =  -3.88759183838118E-03  1.84029415663647E-01
 cg2d: Sum(rhs),rhsMax =  -3.88776832096990E-03  1.84034786247081E-01
 cg2d: Sum(rhs),rhsMax =  -3.88794451880670E-03  1.84040155276060E-01
 cg2d: Sum(rhs),rhsMax =  -3.88812043579387E-03  1.84045522753793E-01
 cg2d: Sum(rhs),rhsMax =  -3.88829607624330E-03  1.84050888683488E-01
 cg2d: Sum(rhs),rhsMax =  -3.88847144498148E-03  1.84056253068363E-01
 cg2d: Sum(rhs),rhsMax =  -3.88864654586965E-03  1.84061615911631E-01
 cg2d: Sum(rhs),rhsMax =  -3.88882138407557E-03  1.84066977216508E-01
 cg2d: Sum(rhs),rhsMax =  -3.88899596466761E-03  1.84072336986213E-01
 cg2d: Sum(rhs),rhsMax =  -3.88917029211306E-03  1.84077695223969E-01
 cg2d: Sum(rhs),rhsMax =  -3.88934437141878E-03  1.84083051932993E-01
 cg2d: Sum(rhs),rhsMax =  -3.88951820737013E-03  1.84088407116513E-01
 cg2d: Sum(rhs),rhsMax =  -3.88969180533832E-03  1.84093760777751E-01
 cg2d: Sum(rhs),rhsMax =  -3.88986517069152E-03  1.84099112919936E-01
 cg2d: Sum(rhs),rhsMax =  -3.89003830854123E-03  1.84104463546297E-01
 cg2d: Sum(rhs),rhsMax =  -3.89021122426578E-03  1.84109812660058E-01
 cg2d: Sum(rhs),rhsMax =  -3.89038392353120E-03  1.84115160264457E-01
 cg2d: Sum(rhs),rhsMax =  -3.89055641154237E-03  1.84120506362723E-01
 cg2d: Sum(rhs),rhsMax =  -3.89072869429223E-03  1.84125850958098E-01
 cg2d: Sum(rhs),rhsMax =  -3.89090077749667E-03  1.84131194053805E-01
 cg2d: Sum(rhs),rhsMax =  -3.89107266635606E-03  1.84136535653092E-01
 cg2d: Sum(rhs),rhsMax =  -3.89124436789613E-03  1.84141875759196E-01
 cg2d: Sum(rhs),rhsMax =  -3.89141588738776E-03  1.84147214375361E-01
 cg2d: Sum(rhs),rhsMax =  -3.89158723120490E-03  1.84152551504821E-01
 cg2d: Sum(rhs),rhsMax =  -3.89175840558288E-03  1.84157887150828E-01
 cg2d: Sum(rhs),rhsMax =  -3.89192941661195E-03  1.84163221316620E-01
 cg2d: Sum(rhs),rhsMax =  -3.89210027068963E-03  1.84168554005449E-01
 cg2d: Sum(rhs),rhsMax =  -3.89227097455212E-03  1.84173885220564E-01
 cg2d: Sum(rhs),rhsMax =  -3.89244153429383E-03  1.84179214965213E-01
 cg2d: Sum(rhs),rhsMax =  -3.89261195698339E-03  1.84184543242644E-01
 cg2d: Sum(rhs),rhsMax =  -3.89278224851097E-03  1.84189870056113E-01
 cg2d: Sum(rhs),rhsMax =  -3.89295241697181E-03  1.84195195408881E-01
 cg2d: Sum(rhs),rhsMax =  -3.89312246828218E-03  1.84200519304192E-01
 cg2d: Sum(rhs),rhsMax =  -3.89329240960972E-03  1.84205841745306E-01
 cg2d: Sum(rhs),rhsMax =  -3.89346224826599E-03  1.84211162735484E-01
 cg2d: Sum(rhs),rhsMax =  -3.89363199129166E-03  1.84216482277986E-01
 cg2d: Sum(rhs),rhsMax =  -3.89380164567943E-03  1.84221800376068E-01
 cg2d: Sum(rhs),rhsMax =  -3.89397121900165E-03  1.84227117033003E-01
 cg2d: Sum(rhs),rhsMax =  -3.89414071872980E-03  1.84232432252043E-01
 cg2d: Sum(rhs),rhsMax =  -3.89431015157538E-03  1.84237746036461E-01
 cg2d: Sum(rhs),rhsMax =  -3.89447952617129E-03  1.84243058389522E-01
 cg2d: Sum(rhs),rhsMax =  -3.89464884978177E-03  1.84248369314496E-01
 cg2d: Sum(rhs),rhsMax =  -3.89481813007046E-03  1.84253678814645E-01
 cg2d: Sum(rhs),rhsMax =  -3.89498737468771E-03  1.84258986893245E-01
(PID.TID 0000.0001)      cg2d_init_res =   6.64162422150688E-04
(PID.TID 0000.0001)      cg2d_iters(min,last) =      -1      73
(PID.TID 0000.0001)      cg2d_last_res =   9.84280078578589E-08
(PID.TID 0000.0001) // =======================================================
(PID.TID 0000.0001) // Begin MONITOR dynamic field statistics
(PID.TID 0000.0001) // =======================================================
(PID.TID 0000.0001) %MON time_tsnumber                =                 10944
(PID.TID 0000.0001) %MON time_secondsf                =   1.3132800000000E+07
(PID.TID 0000.0001) %MON dynstat_eta_max              =   2.5240158289545E-01
(PID.TID 0000.0001) %MON dynstat_eta_min              =  -8.9573130492440E-02
(PID.TID 0000.0001) %MON dynstat_eta_mean             =   3.5868525343801E-06
(PID.TID 0000.0001) %MON dynstat_eta_sd               =   1.0126231445894E-01
(PID.TID 0000.0001) %MON dynstat_eta_del2             =   2.7832388041317E-05
(PID.TID 0000.0001) %MON dynstat_uvel_max             =   1.3820195525238E-01
(PID.TID 0000.0001) %MON dynstat_uvel_min             =  -9.3093901196868E-02
(PID.TID 0000.0001) %MON dynstat_uvel_mean            =  -1.1673608616770E-08
(PID.TID 0000.0001) %MON dynstat_uvel_sd              =   4.1861525461245E-02
(PID.TID 0000.0001) %MON dynstat_uvel_del2            =   6.6119973225263E-05
(PID.TID 0000.0001) %MON dynstat_vvel_max             =   7.9748728484172E-02
(PID.TID 0000.0001) %MON dynstat_vvel_min             =  -1.0732339865292E-01
(PID.TID 0000.0001) %MON dynstat_vvel_mean            =   1.8330088125957E-07
(PID.TID 0000.0001) %MON dynstat_vvel_sd              =   3.7902073171282E-02
(PID.TID 0000.0001) %MON dynstat_vvel_del2            =   4.1107533870644E-05
(PID.TID 0000.0001) %MON dynstat_wvel_max             =   1.8220673260512E-08
(PID.TID 0000.0001) %MON dynstat_wvel_min             =  -9.3949910832453E-09
(PID.TID 0000.0001) %MON dynstat_wvel_mean            =  -4.2049881206670E-21
(PID.TID 0000.0001) %MON dynstat_wvel_sd              =   5.8741801127909E-09
(PID.TID 0000.0001) %MON dynstat_wvel_del2            =   2.1271745910292E-12
(PID.TID 0000.0001) %MON dynstat_theta_max            =   2.0000000000000E+01
(PID.TID 0000.0001) %MON dynstat_theta_min            =   2.0000000000000E+01
(PID.TID 0000.0001) %MON dynstat_theta_mean           =   2.0000000000000E+01
(PID.TID 0000.0001) %MON dynstat_theta_sd             =   3.8014036363165E-13
(PID.TID 0000.0001) %MON dynstat_theta_del2           =   0.0000000000000E+00
(PID.TID 0000.0001) %MON dynstat_salt_max             =   3.0000000000000E+01
(PID.TID 0000.0001) %MON dynstat_salt_min             =   3.0000000000000E+01
(PID.TID 0000.0001) %MON dynstat_salt_mean            =   2.9999999999999E+01
(PID.TID 0000.0001) %MON dynstat_salt_sd              =   5.5777604757167E-13
(PID.TID 0000.0001) %MON dynstat_salt_del2            =   0.0000000000000E+00
(PID.TID 0000.0001) %MON trAdv_CFL_u_max              =   8.2909147795144E-03
(PID.TID 0000.0001) %MON trAdv_CFL_v_max              =   6.4306673460775E-03
(PID.TID 0000.0001) %MON trAdv_CFL_w_max              =   4.7592121809035E-09
(PID.TID 0000.0001) %MON advcfl_uvel_max              =   8.2921173151428E-03
(PID.TID 0000.0001) %MON advcfl_vvel_max              =   6.4394039191755E-03
(PID.TID 0000.0001) %MON advcfl_wvel_max              =   8.7459231650457E-09
(PID.TID 0000.0001) %MON advcfl_W_hf_max              =   0.0000000000000E+00
(PID.TID 0000.0001) %MON pe_b_mean                    =   1.0512814296630E-05
(PID.TID 0000.0001) %MON ke_max                       =   9.5667612253810E-03
(PID.TID 0000.0001) %MON ke_mean                      =   1.5651570026982E-03
(PID.TID 0000.0001) %MON ke_vol                       =   6.8893493896486E+15
(PID.TID 0000.0001) %MON vort_r_min                   =  -1.0017454582032E-06
(PID.TID 0000.0001) %MON vort_r_max                   =   3.0003668105430E-06
(PID.TID 0000.0001) %MON vort_a_mean                  =   1.0600000000000E-04
(PID.TID 0000.0001) %MON vort_a_sd                    =   3.5567628140209E-06
(PID.TID 0000.0001) %MON vort_p_mean                  =   1.1652272308690E-04
(PID.TID 0000.0001) %MON vort_p_sd                    =   4.1787229817660E-05
(PID.TID 0000.0001) %MON surfExpan_theta_mean         =  -8.4025941760046E-20
(PID.TID 0000.0001) %MON surfExpan_salt_mean          =  -1.2607554506556E-19
(PID.TID 0000.0001) // =======================================================
(PID.TID 0000.0001) // End MONITOR dynamic field statistics
(PID.TID 0000.0001) // =======================================================
 cg2d: Sum(rhs),rhsMax =  -3.89515659167955E-03  1.84264293553570E-01
 cg2d: Sum(rhs),rhsMax =  -3.89532578906948E-03  1.84269598798893E-01
 cg2d: Sum(rhs),rhsMax =  -3.89549497464116E-03  1.84274902632484E-01
 cg2d: Sum(rhs),rhsMax =  -3.89566415682811E-03  1.84280205057625E-01
 cg2d: Sum(rhs),rhsMax =  -3.89583334383533E-03  1.84285506077586E-01
 cg2d: Sum(rhs),rhsMax =  -3.89600254396019E-03  1.84290805695650E-01
 cg2d: Sum(rhs),rhsMax =  -3.89617176539675E-03  1.84296103915097E-01
 cg2d: Sum(rhs),rhsMax =  -3.89634101672373E-03  1.84301400739206E-01
 cg2d: Sum(rhs),rhsMax =  -3.89651030611816E-03  1.84306696171262E-01
 cg2d: Sum(rhs),rhsMax =  -3.89667964224245E-03  1.84311990214549E-01
 cg2d: Sum(rhs),rhsMax =  -3.89684903441664E-03  1.84317282872344E-01
 cg2d: Sum(rhs),rhsMax =  -3.89701849057561E-03  1.84322574147940E-01
 cg2d: Sum(rhs),rhsMax =  -3.89718801989136E-03  1.84327864044623E-01
 cg2d: Sum(rhs),rhsMax =  -3.89735763115329E-03  1.84333152565682E-01
 cg2d: Sum(rhs),rhsMax =  -3.89752733324483E-03  1.84338439714401E-01
 cg2d: Sum(rhs),rhsMax =  -3.89769713546423E-03  1.84343725494081E-01
 cg2d: Sum(rhs),rhsMax =  -3.89786704618542E-03  1.84349009908005E-01
 cg2d: Sum(rhs),rhsMax =  -3.89803707547009E-03  1.84354292959470E-01
 cg2d: Sum(rhs),rhsMax =  -3.89820723231761E-03  1.84359574651770E-01
 cg2d: Sum(rhs),rhsMax =  -3.89837752583674E-03  1.84364854988196E-01
 cg2d: Sum(rhs),rhsMax =  -3.89854796541157E-03  1.84370133972050E-01
 cg2d: Sum(rhs),rhsMax =  -3.89871856043332E-03  1.84375411606627E-01
 cg2d: Sum(rhs),rhsMax =  -3.89888932078498E-03  1.84380687895226E-01
 cg2d: Sum(rhs),rhsMax =  -3.89906025551367E-03  1.84385962841145E-01
 cg2d: Sum(rhs),rhsMax =  -3.89923137426200E-03  1.84391236447690E-01
 cg2d: Sum(rhs),rhsMax =  -3.89940268694681E-03  1.84396508718159E-01
 cg2d: Sum(rhs),rhsMax =  -3.89957420289658E-03  1.84401779655854E-01
 cg2d: Sum(rhs),rhsMax =  -3.89974593269210E-03  1.84407049264081E-01
 cg2d: Sum(rhs),rhsMax =  -3.89991788523384E-03  1.84412317546148E-01
 cg2d: Sum(rhs),rhsMax =  -3.90009007089497E-03  1.84417584505358E-01
 cg2d: Sum(rhs),rhsMax =  -3.90026249995943E-03  1.84422850145015E-01
 cg2d: Sum(rhs),rhsMax =  -3.90043518170632E-03  1.84428114468432E-01
 cg2d: Sum(rhs),rhsMax =  -3.90060812661147E-03  1.84433377478919E-01
 cg2d: Sum(rhs),rhsMax =  -3.90078134523866E-03  1.84438639179785E-01
 cg2d: Sum(rhs),rhsMax =  -3.90095484695982E-03  1.84443899574340E-01
 cg2d: Sum(rhs),rhsMax =  -3.90112864276616E-03  1.84449158665896E-01
 cg2d: Sum(rhs),rhsMax =  -3.90130274212721E-03  1.84454416457766E-01
 cg2d: Sum(rhs),rhsMax =  -3.90147715611962E-03  1.84459672953268E-01
 cg2d: Sum(rhs),rhsMax =  -3.90165189448157E-03  1.84464928155715E-01
 cg2d: Sum(rhs),rhsMax =  -3.90182696813898E-03  1.84470182068424E-01
 cg2d: Sum(rhs),rhsMax =  -3.90200238758301E-03  1.84475434694710E-01
 cg2d: Sum(rhs),rhsMax =  -3.90217816300690E-03  1.84480686037896E-01
 cg2d: Sum(rhs),rhsMax =  -3.90235430516330E-03  1.84485936101293E-01
 cg2d: Sum(rhs),rhsMax =  -3.90253082417510E-03  1.84491184888231E-01
 cg2d: Sum(rhs),rhsMax =  -3.90270773133270E-03  1.84496432402018E-01
 cg2d: Sum(rhs),rhsMax =  -3.90288503682525E-03  1.84501678645989E-01
 cg2d: Sum(rhs),rhsMax =  -3.90306275153565E-03  1.84506923623460E-01
 cg2d: Sum(rhs),rhsMax =  -3.90324088607071E-03  1.84512167337756E-01
 cg2d: Sum(rhs),rhsMax =  -3.90341945157203E-03  1.84517409792203E-01
 cg2d: Sum(rhs),rhsMax =  -3.90359845874339E-03  1.84522650990123E-01
 cg2d: Sum(rhs),rhsMax =  -3.90377791831894E-03  1.84527890934847E-01
 cg2d: Sum(rhs),rhsMax =  -3.90395784111459E-03  1.84533129629695E-01
 cg2d: Sum(rhs),rhsMax =  -3.90413823834574E-03  1.84538367077996E-01
 cg2d: Sum(rhs),rhsMax =  -3.90431912028325E-03  1.84543603283086E-01
 cg2d: Sum(rhs),rhsMax =  -3.90450049870479E-03  1.84548838248289E-01
 cg2d: Sum(rhs),rhsMax =  -3.90468238414930E-03  1.84554071976933E-01
 cg2d: Sum(rhs),rhsMax =  -3.90486478785830E-03  1.84559304472357E-01
 cg2d: Sum(rhs),rhsMax =  -3.90504772052277E-03  1.84564535737888E-01
 cg2d: Sum(rhs),rhsMax =  -3.90523119344701E-03  1.84569765776860E-01
 cg2d: Sum(rhs),rhsMax =  -3.90541521729391E-03  1.84574994592605E-01
 cg2d: Sum(rhs),rhsMax =  -3.90559980358002E-03  1.84580222188457E-01
 cg2d: Sum(rhs),rhsMax =  -3.90578496330137E-03  1.84585448567754E-01
 cg2d: Sum(rhs),rhsMax =  -3.90597070774321E-03  1.84590673733831E-01
 cg2d: Sum(rhs),rhsMax =  -3.90615704798428E-03  1.84595897690021E-01
 cg2d: Sum(rhs),rhsMax =  -3.90634399498643E-03  1.84601120439669E-01
 cg2d: Sum(rhs),rhsMax =  -3.90653155979847E-03  1.84606341986104E-01
 cg2d: Sum(rhs),rhsMax =  -3.90671975381519E-03  1.84611562332672E-01
 cg2d: Sum(rhs),rhsMax =  -3.90690858830837E-03  1.84616781482710E-01
 cg2d: Sum(rhs),rhsMax =  -3.90709807431928E-03  1.84621999439556E-01
 cg2d: Sum(rhs),rhsMax =  -3.90728822311641E-03  1.84627216206554E-01
 cg2d: Sum(rhs),rhsMax =  -3.90747904593088E-03  1.84632431787048E-01
 cg2d: Sum(rhs),rhsMax =  -3.90767055393098E-03  1.84637646184372E-01
(PID.TID 0000.0001)      cg2d_init_res =   6.57948525785795E-04
(PID.TID 0000.0001)      cg2d_iters(min,last) =      -1      73
(PID.TID 0000.0001)      cg2d_last_res =   9.87634387311594E-08
(PID.TID 0000.0001) // =======================================================
(PID.TID 0000.0001) // Begin MONITOR dynamic field statistics
(PID.TID 0000.0001) // =======================================================
(PID.TID 0000.0001) %MON time_tsnumber                =                 11016
(PID.TID 0000.0001) %MON time_secondsf                =   1.3219200000000E+07
(PID.TID 0000.0001) %MON dynstat_eta_max              =   2.5371837940489E-01
(PID.TID 0000.0001) %MON dynstat_eta_min              =  -8.9808024061656E-02
(PID.TID 0000.0001) %MON dynstat_eta_mean             =   3.6059461264239E-06
(PID.TID 0000.0001) %MON dynstat_eta_sd               =   1.0173960249658E-01
(PID.TID 0000.0001) %MON dynstat_eta_del2             =   2.7935744303097E-05
(PID.TID 0000.0001) %MON dynstat_uvel_max             =   1.3861381741321E-01
(PID.TID 0000.0001) %MON dynstat_uvel_min             =  -9.3675774447068E-02
(PID.TID 0000.0001) %MON dynstat_uvel_mean            =  -5.7494551394748E-10
(PID.TID 0000.0001) %MON dynstat_uvel_sd              =   4.2056265050252E-02
(PID.TID 0000.0001) %MON dynstat_uvel_del2            =   6.6246947943645E-05
(PID.TID 0000.0001) %MON dynstat_vvel_max             =   7.9680897799622E-02
(PID.TID 0000.0001) %MON dynstat_vvel_min             =  -1.0774737173746E-01
(PID.TID 0000.0001) %MON dynstat_vvel_mean            =   1.8134789032436E-07
(PID.TID 0000.0001) %MON dynstat_vvel_sd              =   3.8065193463951E-02
(PID.TID 0000.0001) %MON dynstat_vvel_del2            =   4.1113375629999E-05
(PID.TID 0000.0001) %MON dynstat_wvel_max             =   1.8200729000382E-08
(PID.TID 0000.0001) %MON dynstat_wvel_min             =  -9.2815618848545E-09
(PID.TID 0000.0001) %MON dynstat_wvel_mean            =  -1.5161238782942E-21
(PID.TID 0000.0001) %MON dynstat_wvel_sd              =   5.8490016019097E-09
(PID.TID 0000.0001) %MON dynstat_wvel_del2            =   2.1057634551860E-12
(PID.TID 0000.0001) %MON dynstat_theta_max            =   2.0000000000000E+01
(PID.TID 0000.0001) %MON dynstat_theta_min            =   2.0000000000000E+01
(PID.TID 0000.0001) %MON dynstat_theta_mean           =   2.0000000000000E+01
(PID.TID 0000.0001) %MON dynstat_theta_sd             =   3.8014036363165E-13
(PID.TID 0000.0001) %MON dynstat_theta_del2           =   0.0000000000000E+00
(PID.TID 0000.0001) %MON dynstat_salt_max             =   3.0000000000000E+01
(PID.TID 0000.0001) %MON dynstat_salt_min             =   3.0000000000000E+01
(PID.TID 0000.0001) %MON dynstat_salt_mean            =   2.9999999999999E+01
(PID.TID 0000.0001) %MON dynstat_salt_sd              =   5.5777604757167E-13
(PID.TID 0000.0001) %MON dynstat_salt_del2            =   0.0000000000000E+00
(PID.TID 0000.0001) %MON trAdv_CFL_u_max              =   8.3158306037597E-03
(PID.TID 0000.0001) %MON trAdv_CFL_v_max              =   6.4560694791399E-03
(PID.TID 0000.0001) %MON trAdv_CFL_w_max              =   4.7500691540760E-09
(PID.TID 0000.0001) %MON advcfl_uvel_max              =   8.3168290447928E-03
(PID.TID 0000.0001) %MON advcfl_vvel_max              =   6.4648423042475E-03
(PID.TID 0000.0001) %MON advcfl_wvel_max              =   8.7363499201834E-09
(PID.TID 0000.0001) %MON advcfl_W_hf_max              =   0.0000000000000E+00
(PID.TID 0000.0001) %MON pe_b_mean                    =   1.0612149682420E-05
(PID.TID 0000.0001) %MON ke_max                       =   9.6232052743929E-03
(PID.TID 0000.0001) %MON ke_mean                      =   1.5792597735982E-03
(PID.TID 0000.0001) %MON ke_vol                       =   6.8893493896486E+15
(PID.TID 0000.0001) %MON vort_r_min                   =  -1.0069053880996E-06
(PID.TID 0000.0001) %MON vort_r_max                   =   3.0082203265044E-06
(PID.TID 0000.0001) %MON vort_a_mean                  =   1.0600000000000E-04
(PID.TID 0000.0001) %MON vort_a_sd                    =   3.5569969452205E-06
(PID.TID 0000.0001) %MON vort_p_mean                  =   1.1652272308690E-04
(PID.TID 0000.0001) %MON vort_p_sd                    =   4.1787290142436E-05
(PID.TID 0000.0001) %MON surfExpan_theta_mean         =  -3.0304489781783E-20
(PID.TID 0000.0001) %MON surfExpan_salt_mean          =  -4.5479472040218E-20
(PID.TID 0000.0001) // =======================================================
(PID.TID 0000.0001) // End MONITOR dynamic field statistics
(PID.TID 0000.0001) // =======================================================
 cg2d: Sum(rhs),rhsMax =  -3.90786275791150E-03  1.84642859401875E-01
 cg2d: Sum(rhs),rhsMax =  -3.90805566953558E-03  1.84648071442900E-01
 cg2d: Sum(rhs),rhsMax =  -3.90824930007512E-03  1.84653282310790E-01
 cg2d: Sum(rhs),rhsMax =  -3.90844366071531E-03  1.84658492008891E-01
 cg2d: Sum(rhs),rhsMax =  -3.90863876231690E-03  1.84663700540548E-01
 cg2d: Sum(rhs),rhsMax =  -3.90883461608581E-03  1.84668907909109E-01
 cg2d: Sum(rhs),rhsMax =  -3.90903123343748E-03  1.84674114117914E-01
 cg2d: Sum(rhs),rhsMax =  -3.90922862573646E-03  1.84679319170320E-01
 cg2d: Sum(rhs),rhsMax =  -3.90942680355949E-03  1.84684523069671E-01
 cg2d: Sum(rhs),rhsMax =  -3.90962577790876E-03  1.84689725819311E-01
 cg2d: Sum(rhs),rhsMax =  -3.90982556074660E-03  1.84694927422602E-01
 cg2d: Sum(rhs),rhsMax =  -3.91002616268889E-03  1.84700127882876E-01
 cg2d: Sum(rhs),rhsMax =  -3.91022759492526E-03  1.84705327203494E-01
 cg2d: Sum(rhs),rhsMax =  -3.91042986848808E-03  1.84710525387809E-01
 cg2d: Sum(rhs),rhsMax =  -3.91063299449885E-03  1.84715722439168E-01
 cg2d: Sum(rhs),rhsMax =  -3.91083698410544E-03  1.84720918360924E-01
 cg2d: Sum(rhs),rhsMax =  -3.91104184794870E-03  1.84726113156427E-01
 cg2d: Sum(rhs),rhsMax =  -3.91124759751486E-03  1.84731306829033E-01
 cg2d: Sum(rhs),rhsMax =  -3.91145424319765E-03  1.84736499382100E-01
 cg2d: Sum(rhs),rhsMax =  -3.91166179639469E-03  1.84741690818972E-01
 cg2d: Sum(rhs),rhsMax =  -3.91187026783555E-03  1.84746881143008E-01
 cg2d: Sum(rhs),rhsMax =  -3.91207966834875E-03  1.84752070357564E-01
 cg2d: Sum(rhs),rhsMax =  -3.91229000895021E-03  1.84757258465999E-01
 cg2d: Sum(rhs),rhsMax =  -3.91250130060342E-03  1.84762445471662E-01
 cg2d: Sum(rhs),rhsMax =  -3.91271355364887E-03  1.84767631377915E-01
 cg2d: Sum(rhs),rhsMax =  -3.91292677873412E-03  1.84772816188110E-01
 cg2d: Sum(rhs),rhsMax =  -3.91314098721521E-03  1.84777999905608E-01
 cg2d: Sum(rhs),rhsMax =  -3.91335618931667E-03  1.84783182533771E-01
 cg2d: Sum(rhs),rhsMax =  -3.91357239608047E-03  1.84788364075945E-01
 cg2d: Sum(rhs),rhsMax =  -3.91378961740502E-03  1.84793544535498E-01
 cg2d: Sum(rhs),rhsMax =  -3.91400786465604E-03  1.84798723915786E-01
 cg2d: Sum(rhs),rhsMax =  -3.91422714725555E-03  1.84803902220173E-01
 cg2d: Sum(rhs),rhsMax =  -3.91444747687198E-03  1.84809079452013E-01
 cg2d: Sum(rhs),rhsMax =  -3.91466886327620E-03  1.84814255614674E-01
 cg2d: Sum(rhs),rhsMax =  -3.91489131665414E-03  1.84819430711499E-01
 cg2d: Sum(rhs),rhsMax =  -3.91511484765986E-03  1.84824604745871E-01
 cg2d: Sum(rhs),rhsMax =  -3.91533946704628E-03  1.84829777721143E-01
 cg2d: Sum(rhs),rhsMax =  -3.91556518394302E-03  1.84834949640672E-01
 cg2d: Sum(rhs),rhsMax =  -3.91579200959851E-03  1.84840120507827E-01
 cg2d: Sum(rhs),rhsMax =  -3.91601995321258E-03  1.84845290325964E-01
 cg2d: Sum(rhs),rhsMax =  -3.91624902568077E-03  1.84850459098449E-01
 cg2d: Sum(rhs),rhsMax =  -3.91647923645237E-03  1.84855626828647E-01
 cg2d: Sum(rhs),rhsMax =  -3.91671059535113E-03  1.84860793519920E-01
 cg2d: Sum(rhs),rhsMax =  -3.91694311266365E-03  1.84865959175632E-01
 cg2d: Sum(rhs),rhsMax =  -3.91717679784559E-03  1.84871123799147E-01
 cg2d: Sum(rhs),rhsMax =  -3.91741166136410E-03  1.84876287393829E-01
 cg2d: Sum(rhs),rhsMax =  -3.91764771238923E-03  1.84881449963043E-01
 cg2d: Sum(rhs),rhsMax =  -3.91788496027761E-03  1.84886611510152E-01
 cg2d: Sum(rhs),rhsMax =  -3.91812341507428E-03  1.84891772038520E-01
 cg2d: Sum(rhs),rhsMax =  -3.91836308600724E-03  1.84896931551524E-01
 cg2d: Sum(rhs),rhsMax =  -3.91860398283920E-03  1.84902090052514E-01
 cg2d: Sum(rhs),rhsMax =  -3.91884611473549E-03  1.84907247544866E-01
 cg2d: Sum(rhs),rhsMax =  -3.91908949082759E-03  1.84912404031940E-01
 cg2d: Sum(rhs),rhsMax =  -3.91933412087108E-03  1.84917559517110E-01
 cg2d: Sum(rhs),rhsMax =  -3.91958001371396E-03  1.84922714003738E-01
 cg2d: Sum(rhs),rhsMax =  -3.91982717842544E-03  1.84927867495190E-01
 cg2d: Sum(rhs),rhsMax =  -3.92007562413164E-03  1.84933019994834E-01
 cg2d: Sum(rhs),rhsMax =  -3.92032535972103E-03  1.84938171506037E-01
 cg2d: Sum(rhs),rhsMax =  -3.92057639384626E-03  1.84943322032165E-01
 cg2d: Sum(rhs),rhsMax =  -3.92082873568990E-03  1.84948471576591E-01
 cg2d: Sum(rhs),rhsMax =  -3.92108239384127E-03  1.84953620142677E-01
 cg2d: Sum(rhs),rhsMax =  -3.92133737700450E-03  1.84958767733797E-01
 cg2d: Sum(rhs),rhsMax =  -3.92159369328141E-03  1.84963914353312E-01
 cg2d: Sum(rhs),rhsMax =  -3.92185135198353E-03  1.84969060004593E-01
 cg2d: Sum(rhs),rhsMax =  -3.92211036075768E-03  1.84974204691012E-01
 cg2d: Sum(rhs),rhsMax =  -3.92237072807399E-03  1.84979348415934E-01
 cg2d: Sum(rhs),rhsMax =  -3.92263246258686E-03  1.84984491182729E-01
 cg2d: Sum(rhs),rhsMax =  -3.92289557247906E-03  1.84989632994762E-01
 cg2d: Sum(rhs),rhsMax =  -3.92316006559914E-03  1.84994773855408E-01
 cg2d: Sum(rhs),rhsMax =  -3.92342594961824E-03  1.84999913768028E-01
 cg2d: Sum(rhs),rhsMax =  -3.92369323293731E-03  1.85005052736000E-01
 cg2d: Sum(rhs),rhsMax =  -3.92396192306758E-03  1.85010190762690E-01
(PID.TID 0000.0001)      cg2d_init_res =   6.51659468992879E-04
(PID.TID 0000.0001)      cg2d_iters(min,last) =      -1      73
(PID.TID 0000.0001)      cg2d_last_res =   9.92529674546777E-08
(PID.TID 0000.0001) // =======================================================
(PID.TID 0000.0001) // Begin MONITOR dynamic field statistics
(PID.TID 0000.0001) // =======================================================
(PID.TID 0000.0001) %MON time_tsnumber                =                 11088
(PID.TID 0000.0001) %MON time_secondsf                =   1.3305600000000E+07
(PID.TID 0000.0001) %MON dynstat_eta_max              =   2.5502775167989E-01
(PID.TID 0000.0001) %MON dynstat_eta_min              =  -9.0041924422556E-02
(PID.TID 0000.0001) %MON dynstat_eta_mean             =   3.6283552450786E-06
(PID.TID 0000.0001) %MON dynstat_eta_sd               =   1.0221398923861E-01
(PID.TID 0000.0001) %MON dynstat_eta_del2             =   2.8038674664681E-05
(PID.TID 0000.0001) %MON dynstat_uvel_max             =   1.3901756492203E-01
(PID.TID 0000.0001) %MON dynstat_uvel_min             =  -9.4278370233935E-02
(PID.TID 0000.0001) %MON dynstat_uvel_mean            =   1.0257854121109E-08
(PID.TID 0000.0001) %MON dynstat_uvel_sd              =   4.2250992658739E-02
(PID.TID 0000.0001) %MON dynstat_uvel_del2            =   6.6374614209202E-05
(PID.TID 0000.0001) %MON dynstat_vvel_max             =   7.9633138100880E-02
(PID.TID 0000.0001) %MON dynstat_vvel_min             =  -1.0817612822981E-01
(PID.TID 0000.0001) %MON dynstat_vvel_mean            =   1.7796238980263E-07
(PID.TID 0000.0001) %MON dynstat_vvel_sd              =   3.8226769866948E-02
(PID.TID 0000.0001) %MON dynstat_vvel_del2            =   4.1115062295659E-05
(PID.TID 0000.0001) %MON dynstat_wvel_max             =   1.8176623625914E-08
(PID.TID 0000.0001) %MON dynstat_wvel_min             =  -9.1014136080048E-09
(PID.TID 0000.0001) %MON dynstat_wvel_mean            =  -5.3202880836680E-21
(PID.TID 0000.0001) %MON dynstat_wvel_sd              =   5.8243309283403E-09
(PID.TID 0000.0001) %MON dynstat_wvel_del2            =   2.0854498850772E-12
(PID.TID 0000.0001) %MON dynstat_theta_max            =   2.0000000000000E+01
(PID.TID 0000.0001) %MON dynstat_theta_min            =   2.0000000000000E+01
(PID.TID 0000.0001) %MON dynstat_theta_mean           =   2.0000000000000E+01
(PID.TID 0000.0001) %MON dynstat_theta_sd             =   3.8014036363165E-13
(PID.TID 0000.0001) %MON dynstat_theta_del2           =   0.0000000000000E+00
(PID.TID 0000.0001) %MON dynstat_salt_max             =   3.0000000000000E+01
(PID.TID 0000.0001) %MON dynstat_salt_min             =   3.0000000000000E+01
(PID.TID 0000.0001) %MON dynstat_salt_mean            =   2.9999999999999E+01
(PID.TID 0000.0001) %MON dynstat_salt_sd              =   5.5777604757167E-13
(PID.TID 0000.0001) %MON dynstat_salt_del2            =   0.0000000000000E+00
(PID.TID 0000.0001) %MON trAdv_CFL_u_max              =   8.3400629341164E-03
(PID.TID 0000.0001) %MON trAdv_CFL_v_max              =   6.4817565938041E-03
(PID.TID 0000.0001) %MON trAdv_CFL_w_max              =   4.7439364977962E-09
(PID.TID 0000.0001) %MON advcfl_uvel_max              =   8.3410538953217E-03
(PID.TID 0000.0001) %MON advcfl_vvel_max              =   6.4905676937885E-03
(PID.TID 0000.0001) %MON advcfl_wvel_max              =   8.7247793404385E-09
(PID.TID 0000.0001) %MON advcfl_W_hf_max              =   0.0000000000000E+00
(PID.TID 0000.0001) %MON pe_b_mean                    =   1.0711344091625E-05
(PID.TID 0000.0001) %MON ke_max                       =   9.6783288143315E-03
(PID.TID 0000.0001) %MON ke_mean                      =   1.5933674588780E-03
(PID.TID 0000.0001) %MON ke_vol                       =   6.8893493896486E+15
(PID.TID 0000.0001) %MON vort_r_min                   =  -1.0119198942827E-06
(PID.TID 0000.0001) %MON vort_r_max                   =   3.0158562030844E-06
(PID.TID 0000.0001) %MON vort_a_mean                  =   1.0600000000000E-04
(PID.TID 0000.0001) %MON vort_a_sd                    =   3.5572290164750E-06
(PID.TID 0000.0001) %MON vort_p_mean                  =   1.1652272308690E-04
(PID.TID 0000.0001) %MON vort_p_sd                    =   4.1787346769918E-05
(PID.TID 0000.0001) %MON surfExpan_theta_mean         =  -1.0641088010743E-19
(PID.TID 0000.0001) %MON surfExpan_salt_mean          =  -1.5964663665121E-19
(PID.TID 0000.0001) // =======================================================
(PID.TID 0000.0001) // End MONITOR dynamic field statistics
(PID.TID 0000.0001) // =======================================================
 cg2d: Sum(rhs),rhsMax =  -3.92423202774973E-03  1.85015327851465E-01
 cg2d: Sum(rhs),rhsMax =  -3.92450355519325E-03  1.85020464005694E-01
 cg2d: Sum(rhs),rhsMax =  -3.92477651241795E-03  1.85025599228753E-01
 cg2d: Sum(rhs),rhsMax =  -3.92505090710339E-03  1.85030733524002E-01
 cg2d: Sum(rhs),rhsMax =  -3.92532674663016E-03  1.85035866894819E-01
 cg2d: Sum(rhs),rhsMax =  -3.92560403816871E-03  1.85040999344567E-01
 cg2d: Sum(rhs),rhsMax =  -3.92588278934356E-03  1.85046130876620E-01
 cg2d: Sum(rhs),rhsMax =  -3.92616300668000E-03  1.85051261494344E-01
 cg2d: Sum(rhs),rhsMax =  -3.92644469779660E-03  1.85056391201108E-01
 cg2d: Sum(rhs),rhsMax =  -3.92672786907429E-03  1.85061520000286E-01
 cg2d: Sum(rhs),rhsMax =  -3.92701252819401E-03  1.85066647895248E-01
 cg2d: Sum(rhs),rhsMax =  -3.92729868141648E-03  1.85071774889358E-01
 cg2d: Sum(rhs),rhsMax =  -3.92758633506999E-03  1.85076900985987E-01
 cg2d: Sum(rhs),rhsMax =  -3.92787549613648E-03  1.85082026188508E-01
 cg2d: Sum(rhs),rhsMax =  -3.92816617113998E-03  1.85087150500288E-01
 cg2d: Sum(rhs),rhsMax =  -3.92845836639561E-03  1.85092273924703E-01
 cg2d: Sum(rhs),rhsMax =  -3.92875208840694E-03  1.85097396465106E-01
 cg2d: Sum(rhs),rhsMax =  -3.92904734283611E-03  1.85102518124883E-01
 cg2d: Sum(rhs),rhsMax =  -3.92934413618161E-03  1.85107638907397E-01
 cg2d: Sum(rhs),rhsMax =  -3.92964247449075E-03  1.85112758816015E-01
 cg2d: Sum(rhs),rhsMax =  -3.92994236401291E-03  1.85117877854110E-01
 cg2d: Sum(rhs),rhsMax =  -3.93024380981248E-03  1.85122996025049E-01
 cg2d: Sum(rhs),rhsMax =  -3.93054681796663E-03  1.85128113332202E-01
 cg2d: Sum(rhs),rhsMax =  -3.93085139413082E-03  1.85133229778936E-01
 cg2d: Sum(rhs),rhsMax =  -3.93115754395504E-03  1.85138345368623E-01
 cg2d: Sum(rhs),rhsMax =  -3.93146527302064E-03  1.85143460104626E-01
 cg2d: Sum(rhs),rhsMax =  -3.93177458652851E-03  1.85148573990320E-01
 cg2d: Sum(rhs),rhsMax =  -3.93208548988377E-03  1.85153687029070E-01
 cg2d: Sum(rhs),rhsMax =  -3.93239798798072E-03  1.85158799224247E-01
 cg2d: Sum(rhs),rhsMax =  -3.93271208577177E-03  1.85163910579211E-01
 cg2d: Sum(rhs),rhsMax =  -3.93302778830065E-03  1.85169021097341E-01
 cg2d: Sum(rhs),rhsMax =  -3.93334510113777E-03  1.85174130781998E-01
 cg2d: Sum(rhs),rhsMax =  -3.93366402819963E-03  1.85179239636553E-01
 cg2d: Sum(rhs),rhsMax =  -3.93398457461561E-03  1.85184347664369E-01
 cg2d: Sum(rhs),rhsMax =  -3.93430674480238E-03  1.85189454868816E-01
 cg2d: Sum(rhs),rhsMax =  -3.93463054341854E-03  1.85194561253261E-01
 cg2d: Sum(rhs),rhsMax =  -3.93495597491234E-03  1.85199666821074E-01
 cg2d: Sum(rhs),rhsMax =  -3.93528304303547E-03  1.85204771575612E-01
 cg2d: Sum(rhs),rhsMax =  -3.93561175273992E-03  1.85209875520253E-01
 cg2d: Sum(rhs),rhsMax =  -3.93594210776564E-03  1.85214978658353E-01
 cg2d: Sum(rhs),rhsMax =  -3.93627411232864E-03  1.85220080993289E-01
 cg2d: Sum(rhs),rhsMax =  -3.93660776985058E-03  1.85225182528417E-01
 cg2d: Sum(rhs),rhsMax =  -3.93694308494448E-03  1.85230283267106E-01
 cg2d: Sum(rhs),rhsMax =  -3.93728006057232E-03  1.85235383212721E-01
 cg2d: Sum(rhs),rhsMax =  -3.93761870093629E-03  1.85240482368630E-01
 cg2d: Sum(rhs),rhsMax =  -3.93795900948377E-03  1.85245580738194E-01
 cg2d: Sum(rhs),rhsMax =  -3.93830098939916E-03  1.85250678324777E-01
 cg2d: Sum(rhs),rhsMax =  -3.93864464411764E-03  1.85255775131746E-01
 cg2d: Sum(rhs),rhsMax =  -3.93898997717329E-03  1.85260871162464E-01
 cg2d: Sum(rhs),rhsMax =  -3.93933699180106E-03  1.85265966420294E-01
 cg2d: Sum(rhs),rhsMax =  -3.93968569000886E-03  1.85271060908597E-01
 cg2d: Sum(rhs),rhsMax =  -3.94003607628066E-03  1.85276154630740E-01
 cg2d: Sum(rhs),rhsMax =  -3.94038815281906E-03  1.85281247590086E-01
 cg2d: Sum(rhs),rhsMax =  -3.94074192230764E-03  1.85286339789990E-01
 cg2d: Sum(rhs),rhsMax =  -3.94109738752767E-03  1.85291431233823E-01
 cg2d: Sum(rhs),rhsMax =  -3.94145455123552E-03  1.85296521924941E-01
 cg2d: Sum(rhs),rhsMax =  -3.94181341581077E-03  1.85301611866707E-01
 cg2d: Sum(rhs),rhsMax =  -3.94217398362432E-03  1.85306701062484E-01
 cg2d: Sum(rhs),rhsMax =  -3.94253625785344E-03  1.85311789515627E-01
 cg2d: Sum(rhs),rhsMax =  -3.94290023966268E-03  1.85316877229501E-01
 cg2d: Sum(rhs),rhsMax =  -3.94326593151064E-03  1.85321964207466E-01
 cg2d: Sum(rhs),rhsMax =  -3.94363333583116E-03  1.85327050452877E-01
 cg2d: Sum(rhs),rhsMax =  -3.94400245432651E-03  1.85332135969098E-01
 cg2d: Sum(rhs),rhsMax =  -3.94437328889799E-03  1.85337220759488E-01
 cg2d: Sum(rhs),rhsMax =  -3.94474584113543E-03  1.85342304827399E-01
 cg2d: Sum(rhs),rhsMax =  -3.94512011350286E-03  1.85347388176193E-01
 cg2d: Sum(rhs),rhsMax =  -3.94549610710786E-03  1.85352470809225E-01
 cg2d: Sum(rhs),rhsMax =  -3.94587382327530E-03  1.85357552729858E-01
 cg2d: Sum(rhs),rhsMax =  -3.94616354860844E-03  1.85362634160458E-01
 cg2d: Sum(rhs),rhsMax =  -3.94645499661819E-03  1.85367714705316E-01
 cg2d: Sum(rhs),rhsMax =  -3.94674813809677E-03  1.85372794513571E-01
 cg2d: Sum(rhs),rhsMax =  -3.94704298240954E-03  1.85377873618613E-01
(PID.TID 0000.0001)      cg2d_init_res =   6.45264542401814E-04
(PID.TID 0000.0001)      cg2d_iters(min,last) =      -1      74
(PID.TID 0000.0001)      cg2d_last_res =   7.83548246071855E-08
(PID.TID 0000.0001) // =======================================================
(PID.TID 0000.0001) // Begin MONITOR dynamic field statistics
(PID.TID 0000.0001) // =======================================================
(PID.TID 0000.0001) %MON time_tsnumber                =                 11160
(PID.TID 0000.0001) %MON time_secondsf                =   1.3392000000000E+07
(PID.TID 0000.0001) %MON dynstat_eta_max              =   2.5632998692674E-01
(PID.TID 0000.0001) %MON dynstat_eta_min              =  -9.0277017006070E-02
(PID.TID 0000.0001) %MON dynstat_eta_mean             =   3.6569724727422E-06
(PID.TID 0000.0001) %MON dynstat_eta_sd               =   1.0268554458809E-01
(PID.TID 0000.0001) %MON dynstat_eta_del2             =   2.8141047438577E-05
(PID.TID 0000.0001) %MON dynstat_uvel_max             =   1.3941021146350E-01
(PID.TID 0000.0001) %MON dynstat_uvel_min             =  -9.4914039968584E-02
(PID.TID 0000.0001) %MON dynstat_uvel_mean            =   2.0446626345886E-08
(PID.TID 0000.0001) %MON dynstat_uvel_sd              =   4.2445237311725E-02
(PID.TID 0000.0001) %MON dynstat_uvel_del2            =   6.6502581817800E-05
(PID.TID 0000.0001) %MON dynstat_vvel_max             =   7.9898626086149E-02
(PID.TID 0000.0001) %MON dynstat_vvel_min             =  -1.0861151213567E-01
(PID.TID 0000.0001) %MON dynstat_vvel_mean            =   1.7320814327806E-07
(PID.TID 0000.0001) %MON dynstat_vvel_sd              =   3.8387424656867E-02
(PID.TID 0000.0001) %MON dynstat_vvel_del2            =   4.1112612561661E-05
(PID.TID 0000.0001) %MON dynstat_wvel_max             =   1.8114417814650E-08
(PID.TID 0000.0001) %MON dynstat_wvel_min             =  -8.8707472670649E-09
(PID.TID 0000.0001) %MON dynstat_wvel_mean            =  -1.9456832786899E-21
(PID.TID 0000.0001) %MON dynstat_wvel_sd              =   5.8004891626993E-09
(PID.TID 0000.0001) %MON dynstat_wvel_del2            =   2.0654709965475E-12
(PID.TID 0000.0001) %MON dynstat_theta_max            =   2.0000000000000E+01
(PID.TID 0000.0001) %MON dynstat_theta_min            =   2.0000000000000E+01
(PID.TID 0000.0001) %MON dynstat_theta_mean           =   2.0000000000000E+01
(PID.TID 0000.0001) %MON dynstat_theta_sd             =   3.8014036363165E-13
(PID.TID 0000.0001) %MON dynstat_theta_del2           =   0.0000000000000E+00
(PID.TID 0000.0001) %MON dynstat_salt_max             =   3.0000000000000E+01
(PID.TID 0000.0001) %MON dynstat_salt_min             =   3.0000000000000E+01
(PID.TID 0000.0001) %MON dynstat_salt_mean            =   2.9999999999999E+01
(PID.TID 0000.0001) %MON dynstat_salt_sd              =   5.5777604757167E-13
(PID.TID 0000.0001) %MON dynstat_salt_del2            =   0.0000000000000E+00
(PID.TID 0000.0001) %MON trAdv_CFL_u_max              =   8.3636289540024E-03
(PID.TID 0000.0001) %MON trAdv_CFL_v_max              =   6.5078394170534E-03
(PID.TID 0000.0001) %MON trAdv_CFL_w_max              =   4.7321447681622E-09
(PID.TID 0000.0001) %MON advcfl_uvel_max              =   8.3646126878100E-03
(PID.TID 0000.0001) %MON advcfl_vvel_max              =   6.5166907281404E-03
(PID.TID 0000.0001) %MON advcfl_wvel_max              =   8.6949205510318E-09
(PID.TID 0000.0001) %MON advcfl_W_hf_max              =   0.0000000000000E+00
(PID.TID 0000.0001) %MON pe_b_mean                    =   1.0810403776196E-05
(PID.TID 0000.0001) %MON ke_max                       =   9.7321678075536E-03
(PID.TID 0000.0001) %MON ke_mean                      =   1.6074831420532E-03
(PID.TID 0000.0001) %MON ke_vol                       =   6.8893493896486E+15
(PID.TID 0000.0001) %MON vort_r_min                   =  -1.0166723915756E-06
(PID.TID 0000.0001) %MON vort_r_max                   =   3.0232853160276E-06
(PID.TID 0000.0001) %MON vort_a_mean                  =   1.0600000000000E-04
(PID.TID 0000.0001) %MON vort_a_sd                    =   3.5574588339393E-06
(PID.TID 0000.0001) %MON vort_p_mean                  =   1.1652272308690E-04
(PID.TID 0000.0001) %MON vort_p_sd                    =   4.1787399329427E-05
(PID.TID 0000.0001) %MON surfExpan_theta_mean         =  -3.8843634481762E-20
(PID.TID 0000.0001) %MON surfExpan_salt_mean          =  -5.8265451722643E-20
(PID.TID 0000.0001) // =======================================================
(PID.TID 0000.0001) // End MONITOR dynamic field statistics
(PID.TID 0000.0001) // =======================================================
 cg2d: Sum(rhs),rhsMax =  -3.94733953086366E-03  1.85382952030963E-01
 cg2d: Sum(rhs),rhsMax =  -3.94763778501423E-03  1.85388029752235E-01
 cg2d: Sum(rhs),rhsMax =  -3.94793774524214E-03  1.85393106784428E-01
 cg2d: Sum(rhs),rhsMax =  -3.94823941207580E-03  1.85398183130739E-01
 cg2d: Sum(rhs),rhsMax =  -3.94854278588769E-03  1.85403258794771E-01
 cg2d: Sum(rhs),rhsMax =  -3.94884786742732E-03  1.85408333780020E-01
 cg2d: Sum(rhs),rhsMax =  -3.94915465606074E-03  1.85413408089833E-01
 cg2d: Sum(rhs),rhsMax =  -3.94946315301819E-03  1.85418481727501E-01
 cg2d: Sum(rhs),rhsMax =  -3.94977335811369E-03  1.85423554696338E-01
 cg2d: Sum(rhs),rhsMax =  -3.95008527177952E-03  1.85428626999684E-01
 cg2d: Sum(rhs),rhsMax =  -3.95039889385497E-03  1.85433698640900E-01
 cg2d: Sum(rhs),rhsMax =  -3.95071422431990E-03  1.85438769623348E-01
 cg2d: Sum(rhs),rhsMax =  -3.95103126346213E-03  1.85443839950378E-01
 cg2d: Sum(rhs),rhsMax =  -3.95135001046926E-03  1.85448909625350E-01
 cg2d: Sum(rhs),rhsMax =  -3.95167046561203E-03  1.85453978651609E-01
 cg2d: Sum(rhs),rhsMax =  -3.95199262829489E-03  1.85459047032513E-01
 cg2d: Sum(rhs),rhsMax =  -3.95231649841785E-03  1.85464114771400E-01
 cg2d: Sum(rhs),rhsMax =  -3.95264207504767E-03  1.85469181871618E-01
 cg2d: Sum(rhs),rhsMax =  -3.95296935778896E-03  1.85474248336508E-01
 cg2d: Sum(rhs),rhsMax =  -3.95329834607983E-03  1.85479314169409E-01
 cg2d: Sum(rhs),rhsMax =  -3.95362903914976E-03  1.85484379373664E-01
 cg2d: Sum(rhs),rhsMax =  -3.95396143636309E-03  1.85489443952612E-01
 cg2d: Sum(rhs),rhsMax =  -3.95429553692238E-03  1.85494507909605E-01
 cg2d: Sum(rhs),rhsMax =  -3.95463133980533E-03  1.85499571247980E-01
 cg2d: Sum(rhs),rhsMax =  -3.95496884399036E-03  1.85504633971081E-01
 cg2d: Sum(rhs),rhsMax =  -3.95530804847239E-03  1.85509696082251E-01
 cg2d: Sum(rhs),rhsMax =  -3.95564895188999E-03  1.85514757584833E-01
 cg2d: Sum(rhs),rhsMax =  -3.95599155372414E-03  1.85519818482165E-01
 cg2d: Sum(rhs),rhsMax =  -3.95633585190933E-03  1.85524878777581E-01
 cg2d: Sum(rhs),rhsMax =  -3.95668184533574E-03  1.85529938474420E-01
 cg2d: Sum(rhs),rhsMax =  -3.95702953328021E-03  1.85534997576024E-01
 cg2d: Sum(rhs),rhsMax =  -3.95737891376459E-03  1.85540056085726E-01
 cg2d: Sum(rhs),rhsMax =  -3.95772998512566E-03  1.85545114006862E-01
 cg2d: Sum(rhs),rhsMax =  -3.95808274614899E-03  1.85550171342766E-01
 cg2d: Sum(rhs),rhsMax =  -3.95843719474472E-03  1.85555228096774E-01
 cg2d: Sum(rhs),rhsMax =  -3.95879332967089E-03  1.85560284272223E-01
 cg2d: Sum(rhs),rhsMax =  -3.95915114894157E-03  1.85565339872449E-01
 cg2d: Sum(rhs),rhsMax =  -3.95951065094631E-03  1.85570394900772E-01
 cg2d: Sum(rhs),rhsMax =  -3.95987183378589E-03  1.85575449360538E-01
 cg2d: Sum(rhs),rhsMax =  -3.96023469553174E-03  1.85580503255070E-01
 cg2d: Sum(rhs),rhsMax =  -3.96059923358602E-03  1.85585556587698E-01
 cg2d: Sum(rhs),rhsMax =  -3.96096544659616E-03  1.85590609361758E-01
 cg2d: Sum(rhs),rhsMax =  -3.96133333215249E-03  1.85595661580570E-01
 cg2d: Sum(rhs),rhsMax =  -3.96170288831993E-03  1.85600713247468E-01
 cg2d: Sum(rhs),rhsMax =  -3.96207411280591E-03  1.85605764365781E-01
 cg2d: Sum(rhs),rhsMax =  -3.96244700296752E-03  1.85610814938830E-01
 cg2d: Sum(rhs),rhsMax =  -3.96282155664124E-03  1.85615864969948E-01
 cg2d: Sum(rhs),rhsMax =  -3.96319777201395E-03  1.85620914462452E-01
 cg2d: Sum(rhs),rhsMax =  -3.96357564575200E-03  1.85625963419668E-01
 cg2d: Sum(rhs),rhsMax =  -3.96395517612902E-03  1.85631011844927E-01
 cg2d: Sum(rhs),rhsMax =  -3.96433636040202E-03  1.85636059741542E-01
 cg2d: Sum(rhs),rhsMax =  -3.96471919595833E-03  1.85641107112838E-01
 cg2d: Sum(rhs),rhsMax =  -3.96510367977833E-03  1.85646153962140E-01
 cg2d: Sum(rhs),rhsMax =  -3.96548980990984E-03  1.85651200292761E-01
 cg2d: Sum(rhs),rhsMax =  -3.96587758322902E-03  1.85656246108025E-01
 cg2d: Sum(rhs),rhsMax =  -3.96626699700232E-03  1.85661291411250E-01
 cg2d: Sum(rhs),rhsMax =  -3.96665804839616E-03  1.85666336205752E-01
 cg2d: Sum(rhs),rhsMax =  -3.96705073406026E-03  1.85671380494848E-01
 cg2d: Sum(rhs),rhsMax =  -3.96744505185297E-03  1.85676424281858E-01
 cg2d: Sum(rhs),rhsMax =  -3.96784099875861E-03  1.85681467570091E-01
 cg2d: Sum(rhs),rhsMax =  -3.96823857115653E-03  1.85686510362866E-01
 cg2d: Sum(rhs),rhsMax =  -3.96863776653072E-03  1.85691552663492E-01
 cg2d: Sum(rhs),rhsMax =  -3.96903858163923E-03  1.85696594475288E-01
 cg2d: Sum(rhs),rhsMax =  -3.96944101343789E-03  1.85701635801557E-01
 cg2d: Sum(rhs),rhsMax =  -3.96984505868794E-03  1.85706676645613E-01
 cg2d: Sum(rhs),rhsMax =  -3.97025071403883E-03  1.85711717010767E-01
 cg2d: Sum(rhs),rhsMax =  -3.97065797637730E-03  1.85716756900327E-01
 cg2d: Sum(rhs),rhsMax =  -3.97106684229680E-03  1.85721796317605E-01
 cg2d: Sum(rhs),rhsMax =  -3.97147730865284E-03  1.85726835265897E-01
 cg2d: Sum(rhs),rhsMax =  -3.97188937193471E-03  1.85731873748519E-01
 cg2d: Sum(rhs),rhsMax =  -3.97230302898444E-03  1.85736911768773E-01
 cg2d: Sum(rhs),rhsMax =  -3.97271827595035E-03  1.85741949329961E-01
(PID.TID 0000.0001)      cg2d_init_res =   6.38786542086416E-04
(PID.TID 0000.0001)      cg2d_iters(min,last) =      -1      74
(PID.TID 0000.0001)      cg2d_last_res =   7.91365318696985E-08
(PID.TID 0000.0001) // =======================================================
(PID.TID 0000.0001) // Begin MONITOR dynamic field statistics
(PID.TID 0000.0001) // =======================================================
(PID.TID 0000.0001) %MON time_tsnumber                =                 11232
(PID.TID 0000.0001) %MON time_secondsf                =   1.3478400000000E+07
(PID.TID 0000.0001) %MON dynstat_eta_max              =   2.5762545738947E-01
(PID.TID 0000.0001) %MON dynstat_eta_min              =  -9.0515366935423E-02
(PID.TID 0000.0001) %MON dynstat_eta_mean             =   3.6880986076205E-06
(PID.TID 0000.0001) %MON dynstat_eta_sd               =   1.0315438765080E-01
(PID.TID 0000.0001) %MON dynstat_eta_del2             =   2.8242740558659E-05
(PID.TID 0000.0001) %MON dynstat_uvel_max             =   1.3979219753570E-01
(PID.TID 0000.0001) %MON dynstat_uvel_min             =  -9.5566110591780E-02
(PID.TID 0000.0001) %MON dynstat_uvel_mean            =   2.9625749276686E-08
(PID.TID 0000.0001) %MON dynstat_uvel_sd              =   4.2638516386911E-02
(PID.TID 0000.0001) %MON dynstat_uvel_del2            =   6.6630452228482E-05
(PID.TID 0000.0001) %MON dynstat_vvel_max             =   8.0326812408790E-02
(PID.TID 0000.0001) %MON dynstat_vvel_min             =  -1.0905507354195E-01
(PID.TID 0000.0001) %MON dynstat_vvel_mean            =   1.6720559665594E-07
(PID.TID 0000.0001) %MON dynstat_vvel_sd              =   3.8547795840636E-02
(PID.TID 0000.0001) %MON dynstat_vvel_del2            =   4.1106079819813E-05
(PID.TID 0000.0001) %MON dynstat_wvel_max             =   1.8035891242325E-08
(PID.TID 0000.0001) %MON dynstat_wvel_min             =  -8.6218013003236E-09
(PID.TID 0000.0001) %MON dynstat_wvel_mean            =  -5.3268038552940E-21
(PID.TID 0000.0001) %MON dynstat_wvel_sd              =   5.7776304463423E-09
(PID.TID 0000.0001) %MON dynstat_wvel_del2            =   2.0465825747202E-12
(PID.TID 0000.0001) %MON dynstat_theta_max            =   2.0000000000000E+01
(PID.TID 0000.0001) %MON dynstat_theta_min            =   2.0000000000000E+01
(PID.TID 0000.0001) %MON dynstat_theta_mean           =   2.0000000000000E+01
(PID.TID 0000.0001) %MON dynstat_theta_sd             =   3.8014036363165E-13
(PID.TID 0000.0001) %MON dynstat_theta_del2           =   0.0000000000000E+00
(PID.TID 0000.0001) %MON dynstat_salt_max             =   3.0000000000000E+01
(PID.TID 0000.0001) %MON dynstat_salt_min             =   3.0000000000000E+01
(PID.TID 0000.0001) %MON dynstat_salt_mean            =   2.9999999999999E+01
(PID.TID 0000.0001) %MON dynstat_salt_sd              =   5.5777604757167E-13
(PID.TID 0000.0001) %MON dynstat_salt_del2            =   0.0000000000000E+00
(PID.TID 0000.0001) %MON trAdv_CFL_u_max              =   8.3865549711713E-03
(PID.TID 0000.0001) %MON trAdv_CFL_v_max              =   6.5344110899796E-03
(PID.TID 0000.0001) %MON trAdv_CFL_w_max              =   4.7212848255602E-09
(PID.TID 0000.0001) %MON advcfl_uvel_max              =   8.3875318521423E-03
(PID.TID 0000.0001) %MON advcfl_vvel_max              =   6.5433044125172E-03
(PID.TID 0000.0001) %MON advcfl_wvel_max              =   8.6572277963161E-09
(PID.TID 0000.0001) %MON advcfl_W_hf_max              =   0.0000000000000E+00
(PID.TID 0000.0001) %MON pe_b_mean                    =   1.0909345715634E-05
(PID.TID 0000.0001) %MON ke_max                       =   9.7847776171522E-03
(PID.TID 0000.0001) %MON ke_mean                      =   1.6216100521567E-03
(PID.TID 0000.0001) %MON ke_vol                       =   6.8893493896486E+15
(PID.TID 0000.0001) %MON vort_r_min                   =  -1.0210545755810E-06
(PID.TID 0000.0001) %MON vort_r_max                   =   3.0305209898940E-06
(PID.TID 0000.0001) %MON vort_a_mean                  =   1.0600000000000E-04
(PID.TID 0000.0001) %MON vort_a_sd                    =   3.5576862374430E-06
(PID.TID 0000.0001) %MON vort_p_mean                  =   1.1652272308690E-04
(PID.TID 0000.0001) %MON vort_p_sd                    =   4.1787447484062E-05
(PID.TID 0000.0001) %MON surfExpan_theta_mean         =  -1.0651888260327E-19
(PID.TID 0000.0001) %MON surfExpan_salt_mean          =  -1.5977642912427E-19
(PID.TID 0000.0001) // =======================================================
(PID.TID 0000.0001) // End MONITOR dynamic field statistics
(PID.TID 0000.0001) // =======================================================
 cg2d: Sum(rhs),rhsMax =  -3.97313510991394E-03  1.85746986435392E-01
 cg2d: Sum(rhs),rhsMax =  -3.97355352678472E-03  1.85752023088360E-01
 cg2d: Sum(rhs),rhsMax =  -3.97397352354602E-03  1.85757059292174E-01
 cg2d: Sum(rhs),rhsMax =  -3.97439509616321E-03  1.85762095050130E-01
 cg2d: Sum(rhs),rhsMax =  -3.97481824162849E-03  1.85767130365527E-01
 cg2d: Sum(rhs),rhsMax =  -3.97524295550666E-03  1.85772165241661E-01
 cg2d: Sum(rhs),rhsMax =  -3.97566923481478E-03  1.85777199681838E-01
 cg2d: Sum(rhs),rhsMax =  -3.97609707535363E-03  1.85782233689346E-01
 cg2d: Sum(rhs),rhsMax =  -3.97652647370178E-03  1.85787267267485E-01
 cg2d: Sum(rhs),rhsMax =  -3.97695742564423E-03  1.85792300419547E-01
 cg2d: Sum(rhs),rhsMax =  -3.97738992815358E-03  1.85797333148824E-01
 cg2d: Sum(rhs),rhsMax =  -3.97782397712040E-03  1.85802365458613E-01
 cg2d: Sum(rhs),rhsMax =  -3.97825956824953E-03  1.85807397352195E-01
 cg2d: Sum(rhs),rhsMax =  -3.97869669820297E-03  1.85812428832876E-01
 cg2d: Sum(rhs),rhsMax =  -3.97913536235264E-03  1.85817459903932E-01
 cg2d: Sum(rhs),rhsMax =  -3.97957555751977E-03  1.85822490568658E-01
 cg2d: Sum(rhs),rhsMax =  -3.98001727945308E-03  1.85827520830337E-01
 cg2d: Sum(rhs),rhsMax =  -3.98046052443332E-03  1.85832550692256E-01
 cg2d: Sum(rhs),rhsMax =  -3.98090528770094E-03  1.85837580157703E-01
 cg2d: Sum(rhs),rhsMax =  -3.98135156652443E-03  1.85842609229958E-01
 cg2d: Sum(rhs),rhsMax =  -3.98179935541521E-03  1.85847637912305E-01
 cg2d: Sum(rhs),rhsMax =  -3.98224865134532E-03  1.85852666208030E-01
 cg2d: Sum(rhs),rhsMax =  -3.98269944965721E-03  1.85857694120404E-01
 cg2d: Sum(rhs),rhsMax =  -3.98315174630083E-03  1.85862721652715E-01
 cg2d: Sum(rhs),rhsMax =  -3.98360553735130E-03  1.85867748808238E-01
 cg2d: Sum(rhs),rhsMax =  -3.98406081849397E-03  1.85872775590249E-01
 cg2d: Sum(rhs),rhsMax =  -3.98451758542967E-03  1.85877802002027E-01
 cg2d: Sum(rhs),rhsMax =  -3.98497583431011E-03  1.85882828046845E-01
 cg2d: Sum(rhs),rhsMax =  -3.98543556002321E-03  1.85887853727982E-01
 cg2d: Sum(rhs),rhsMax =  -3.98589675928087E-03  1.85892879048702E-01
 cg2d: Sum(rhs),rhsMax =  -3.98635942749644E-03  1.85897904012282E-01
 cg2d: Sum(rhs),rhsMax =  -3.98682356046168E-03  1.85902928621994E-01
 cg2d: Sum(rhs),rhsMax =  -3.98728915349050E-03  1.85907952881105E-01
 cg2d: Sum(rhs),rhsMax =  -3.98775620270749E-03  1.85912976792881E-01
 cg2d: Sum(rhs),rhsMax =  -3.98822470360850E-03  1.85918000360593E-01
 cg2d: Sum(rhs),rhsMax =  -3.98869465188889E-03  1.85923023587504E-01
 cg2d: Sum(rhs),rhsMax =  -3.98916604352001E-03  1.85928046476881E-01
 cg2d: Sum(rhs),rhsMax =  -3.98963887304783E-03  1.85933069031988E-01
 cg2d: Sum(rhs),rhsMax =  -3.99011313732652E-03  1.85938091256082E-01
 cg2d: Sum(rhs),rhsMax =  -3.99058883119953E-03  1.85943113152429E-01
 cg2d: Sum(rhs),rhsMax =  -3.99106595057685E-03  1.85948134724291E-01
 cg2d: Sum(rhs),rhsMax =  -3.99154449062010E-03  1.85953155974923E-01
 cg2d: Sum(rhs),rhsMax =  -3.99202444700409E-03  1.85958176907580E-01
 cg2d: Sum(rhs),rhsMax =  -3.99250581538365E-03  1.85963197525520E-01
 cg2d: Sum(rhs),rhsMax =  -3.99298859143137E-03  1.85968217832003E-01
 cg2d: Sum(rhs),rhsMax =  -3.99347277080070E-03  1.85973237830279E-01
 cg2d: Sum(rhs),rhsMax =  -3.99395834815859E-03  1.85978257523599E-01
 cg2d: Sum(rhs),rhsMax =  -3.99444531989078E-03  1.85983276915216E-01
 cg2d: Sum(rhs),rhsMax =  -3.99493368164097E-03  1.85988296008385E-01
 cg2d: Sum(rhs),rhsMax =  -3.99542342759675E-03  1.85993314806346E-01
 cg2d: Sum(rhs),rhsMax =  -3.99591455459772E-03  1.85998333312349E-01
 cg2d: Sum(rhs),rhsMax =  -3.99640705694886E-03  1.86003351529645E-01
 cg2d: Sum(rhs),rhsMax =  -3.99690093094399E-03  1.86008369461474E-01
 cg2d: Sum(rhs),rhsMax =  -3.99739617101711E-03  1.86013387111082E-01
 cg2d: Sum(rhs),rhsMax =  -3.99789277396525E-03  1.86018404481709E-01
 cg2d: Sum(rhs),rhsMax =  -3.99839073413645E-03  1.86023421576604E-01
 cg2d: Sum(rhs),rhsMax =  -3.99889004708115E-03  1.86028438399001E-01
 cg2d: Sum(rhs),rhsMax =  -3.99939070866802E-03  1.86033454952134E-01
 cg2d: Sum(rhs),rhsMax =  -3.99989271384936E-03  1.86038471239251E-01
 cg2d: Sum(rhs),rhsMax =  -4.00039605823965E-03  1.86043487263578E-01
 cg2d: Sum(rhs),rhsMax =  -4.00090073718058E-03  1.86048503028353E-01
 cg2d: Sum(rhs),rhsMax =  -4.00140674591203E-03  1.86053518536813E-01
 cg2d: Sum(rhs),rhsMax =  -4.00191407992177E-03  1.86058533792188E-01
 cg2d: Sum(rhs),rhsMax =  -4.00242273442101E-03  1.86063548797707E-01
 cg2d: Sum(rhs),rhsMax =  -4.00293270497686E-03  1.86068563556599E-01
 cg2d: Sum(rhs),rhsMax =  -4.00344398676653E-03  1.86073578072096E-01
 cg2d: Sum(rhs),rhsMax =  -4.00395657563422E-03  1.86078592347418E-01
 cg2d: Sum(rhs),rhsMax =  -4.00447046625574E-03  1.86083606385797E-01
 cg2d: Sum(rhs),rhsMax =  -4.00498565414679E-03  1.86088620190451E-01
 cg2d: Sum(rhs),rhsMax =  -4.00550213462449E-03  1.86093633764612E-01
 cg2d: Sum(rhs),rhsMax =  -4.00601990309846E-03  1.86098647111488E-01
 cg2d: Sum(rhs),rhsMax =  -4.00653895501757E-03  1.86103660234309E-01
(PID.TID 0000.0001)      cg2d_init_res =   6.32295719627978E-04
(PID.TID 0000.0001)      cg2d_iters(min,last) =      -1      74
(PID.TID 0000.0001)      cg2d_last_res =   8.06880233130872E-08
(PID.TID 0000.0001) // =======================================================
(PID.TID 0000.0001) // Begin MONITOR dynamic field statistics
(PID.TID 0000.0001) // =======================================================
(PID.TID 0000.0001) %MON time_tsnumber                =                 11304
(PID.TID 0000.0001) %MON time_secondsf                =   1.3564800000000E+07
(PID.TID 0000.0001) %MON dynstat_eta_max              =   2.5891463025364E-01
(PID.TID 0000.0001) %MON dynstat_eta_min              =  -9.0758841370796E-02
(PID.TID 0000.0001) %MON dynstat_eta_mean             =   3.7268318177347E-06
(PID.TID 0000.0001) %MON dynstat_eta_sd               =   1.0362068510797E-01
(PID.TID 0000.0001) %MON dynstat_eta_del2             =   2.8343642183109E-05
(PID.TID 0000.0001) %MON dynstat_uvel_max             =   1.4016409907451E-01
(PID.TID 0000.0001) %MON dynstat_uvel_min             =  -9.6224659604383E-02
(PID.TID 0000.0001) %MON dynstat_uvel_mean            =   3.7459906243419E-08
(PID.TID 0000.0001) %MON dynstat_uvel_sd              =   4.2830360064352E-02
(PID.TID 0000.0001) %MON dynstat_uvel_del2            =   6.6757827580574E-05
(PID.TID 0000.0001) %MON dynstat_vvel_max             =   8.0759575181048E-02
(PID.TID 0000.0001) %MON dynstat_vvel_min             =  -1.0950804244910E-01
(PID.TID 0000.0001) %MON dynstat_vvel_mean            =   1.6012518068023E-07
(PID.TID 0000.0001) %MON dynstat_vvel_sd              =   3.8708507948149E-02
(PID.TID 0000.0001) %MON dynstat_vvel_del2            =   4.1095556588452E-05
(PID.TID 0000.0001) %MON dynstat_wvel_max             =   1.7955316173611E-08
(PID.TID 0000.0001) %MON dynstat_wvel_min             =  -8.3205124005326E-09
(PID.TID 0000.0001) %MON dynstat_wvel_mean            =   1.7246045697700E-20
(PID.TID 0000.0001) %MON dynstat_wvel_sd              =   5.7557371346123E-09
(PID.TID 0000.0001) %MON dynstat_wvel_del2            =   2.0287955763689E-12
(PID.TID 0000.0001) %MON dynstat_theta_max            =   2.0000000000000E+01
(PID.TID 0000.0001) %MON dynstat_theta_min            =   2.0000000000000E+01
(PID.TID 0000.0001) %MON dynstat_theta_mean           =   2.0000000000000E+01
(PID.TID 0000.0001) %MON dynstat_theta_sd             =   3.8014036363165E-13
(PID.TID 0000.0001) %MON dynstat_theta_del2           =   0.0000000000000E+00
(PID.TID 0000.0001) %MON dynstat_salt_max             =   3.0000000000000E+01
(PID.TID 0000.0001) %MON dynstat_salt_min             =   3.0000000000000E+01
(PID.TID 0000.0001) %MON dynstat_salt_mean            =   2.9999999999999E+01
(PID.TID 0000.0001) %MON dynstat_salt_sd              =   5.5777604757167E-13
(PID.TID 0000.0001) %MON dynstat_salt_del2            =   0.0000000000000E+00
(PID.TID 0000.0001) %MON trAdv_CFL_u_max              =   8.4088754333527E-03
(PID.TID 0000.0001) %MON trAdv_CFL_v_max              =   6.5615455902058E-03
(PID.TID 0000.0001) %MON trAdv_CFL_w_max              =   4.7003332052760E-09
(PID.TID 0000.0001) %MON advcfl_uvel_max              =   8.4098459444709E-03
(PID.TID 0000.0001) %MON advcfl_vvel_max              =   6.5704825469459E-03
(PID.TID 0000.0001) %MON advcfl_wvel_max              =   8.6185517633334E-09
(PID.TID 0000.0001) %MON advcfl_W_hf_max              =   0.0000000000000E+00
(PID.TID 0000.0001) %MON pe_b_mean                    =   1.1008197502529E-05
(PID.TID 0000.0001) %MON ke_max                       =   9.8362309483643E-03
(PID.TID 0000.0001) %MON ke_mean                      =   1.6357514829196E-03
(PID.TID 0000.0001) %MON ke_vol                       =   6.8893493896486E+15
(PID.TID 0000.0001) %MON vort_r_min                   =  -1.0249686571288E-06
(PID.TID 0000.0001) %MON vort_r_max                   =   3.0375786870709E-06
(PID.TID 0000.0001) %MON vort_a_mean                  =   1.0600000000000E-04
(PID.TID 0000.0001) %MON vort_a_sd                    =   3.5579111063433E-06
(PID.TID 0000.0001) %MON vort_p_mean                  =   1.1652272308690E-04
(PID.TID 0000.0001) %MON vort_p_sd                    =   4.1787490956982E-05
(PID.TID 0000.0001) %MON surfExpan_theta_mean         =   3.4496107698740E-19
(PID.TID 0000.0001) %MON surfExpan_salt_mean          =   5.1745353680922E-19
(PID.TID 0000.0001) // =======================================================
(PID.TID 0000.0001) // End MONITOR dynamic field statistics
(PID.TID 0000.0001) // =======================================================
 cg2d: Sum(rhs),rhsMax =  -4.00705928553108E-03  1.86108673136289E-01
 cg2d: Sum(rhs),rhsMax =  -4.00758088988689E-03  1.86113685820647E-01
 cg2d: Sum(rhs),rhsMax =  -4.00810376360538E-03  1.86118698290599E-01
 cg2d: Sum(rhs),rhsMax =  -4.00862790193826E-03  1.86123710549357E-01
 cg2d: Sum(rhs),rhsMax =  -4.00915330024727E-03  1.86128722600130E-01
 cg2d: Sum(rhs),rhsMax =  -4.00967995399119E-03  1.86133734446137E-01
 cg2d: Sum(rhs),rhsMax =  -4.01020785798330E-03  1.86138746090586E-01
 cg2d: Sum(rhs),rhsMax =  -4.01073700803356E-03  1.86143757536681E-01
 cg2d: Sum(rhs),rhsMax =  -4.01126739883200E-03  1.86148768787638E-01
 cg2d: Sum(rhs),rhsMax =  -4.01179902638075E-03  1.86153779846654E-01
 cg2d: Sum(rhs),rhsMax =  -4.01233188586186E-03  1.86158790716936E-01
 cg2d: Sum(rhs),rhsMax =  -4.01286597218054E-03  1.86163801401689E-01
 cg2d: Sum(rhs),rhsMax =  -4.01340128075628E-03  1.86168811904110E-01
 cg2d: Sum(rhs),rhsMax =  -4.01393780750283E-03  1.86173822227404E-01
 cg2d: Sum(rhs),rhsMax =  -4.01447554724715E-03  1.86178832374766E-01
 cg2d: Sum(rhs),rhsMax =  -4.01501449538602E-03  1.86183842349387E-01
 cg2d: Sum(rhs),rhsMax =  -4.01555464660921E-03  1.86188852154480E-01
 cg2d: Sum(rhs),rhsMax =  -4.01609599728699E-03  1.86193861793223E-01
 cg2d: Sum(rhs),rhsMax =  -4.01663854184833E-03  1.86198871268812E-01
 cg2d: Sum(rhs),rhsMax =  -4.01718227646691E-03  1.86203880584439E-01
 cg2d: Sum(rhs),rhsMax =  -4.01772719588594E-03  1.86208889743295E-01
 cg2d: Sum(rhs),rhsMax =  -4.01827329568914E-03  1.86213898748566E-01
 cg2d: Sum(rhs),rhsMax =  -4.01882057083481E-03  1.86218907603441E-01
 cg2d: Sum(rhs),rhsMax =  -4.01936901702063E-03  1.86223916311106E-01
 cg2d: Sum(rhs),rhsMax =  -4.01991862932809E-03  1.86228924874737E-01
 cg2d: Sum(rhs),rhsMax =  -4.02046940283338E-03  1.86233933297521E-01
 cg2d: Sum(rhs),rhsMax =  -4.02102133331804E-03  1.86238941582640E-01
 cg2d: Sum(rhs),rhsMax =  -4.02157441629370E-03  1.86243949733267E-01
 cg2d: Sum(rhs),rhsMax =  -4.02212864646155E-03  1.86248957752584E-01
 cg2d: Sum(rhs),rhsMax =  -4.02268401942665E-03  1.86253965643768E-01
 cg2d: Sum(rhs),rhsMax =  -4.02324053101886E-03  1.86258973409991E-01
 cg2d: Sum(rhs),rhsMax =  -4.02379817617868E-03  1.86263981054421E-01
 cg2d: Sum(rhs),rhsMax =  -4.02435695004452E-03  1.86268988580240E-01
 cg2d: Sum(rhs),rhsMax =  -4.02491684831541E-03  1.86273995990605E-01
 cg2d: Sum(rhs),rhsMax =  -4.02547786598019E-03  1.86279003288693E-01
 cg2d: Sum(rhs),rhsMax =  -4.02603999858876E-03  1.86284010477667E-01
 cg2d: Sum(rhs),rhsMax =  -4.02660324196005E-03  1.86289017560691E-01
 cg2d: Sum(rhs),rhsMax =  -4.02716759076732E-03  1.86294024540932E-01
 cg2d: Sum(rhs),rhsMax =  -4.02773304079454E-03  1.86299031421543E-01
 cg2d: Sum(rhs),rhsMax =  -4.02829958711070E-03  1.86304038205697E-01
 cg2d: Sum(rhs),rhsMax =  -4.02886722532264E-03  1.86309044896540E-01
 cg2d: Sum(rhs),rhsMax =  -4.02943595096340E-03  1.86314051497236E-01
 cg2d: Sum(rhs),rhsMax =  -4.03000575910578E-03  1.86319058010935E-01
 cg2d: Sum(rhs),rhsMax =  -4.03057664506711E-03  1.86324064440796E-01
 cg2d: Sum(rhs),rhsMax =  -4.03114860493404E-03  1.86329070789970E-01
 cg2d: Sum(rhs),rhsMax =  -4.03172163354672E-03  1.86334077061598E-01
 cg2d: Sum(rhs),rhsMax =  -4.03229572645083E-03  1.86339083258842E-01
 cg2d: Sum(rhs),rhsMax =  -4.03287087885573E-03  1.86344089384842E-01
 cg2d: Sum(rhs),rhsMax =  -4.03344708623373E-03  1.86349095442743E-01
 cg2d: Sum(rhs),rhsMax =  -4.03402434421257E-03  1.86354101435692E-01
 cg2d: Sum(rhs),rhsMax =  -4.03460264823394E-03  1.86359107366828E-01
 cg2d: Sum(rhs),rhsMax =  -4.03518199381158E-03  1.86364113239288E-01
 cg2d: Sum(rhs),rhsMax =  -4.03576237601403E-03  1.86369119056223E-01
 cg2d: Sum(rhs),rhsMax =  -4.03634379071395E-03  1.86374124820757E-01
 cg2d: Sum(rhs),rhsMax =  -4.03692623326373E-03  1.86379130536029E-01
 cg2d: Sum(rhs),rhsMax =  -4.03750969897372E-03  1.86384136205175E-01
 cg2d: Sum(rhs),rhsMax =  -4.03809418347986E-03  1.86389141831325E-01
 cg2d: Sum(rhs),rhsMax =  -4.03867968246504E-03  1.86394147417613E-01
 cg2d: Sum(rhs),rhsMax =  -4.03926619041052E-03  1.86399152967160E-01
 cg2d: Sum(rhs),rhsMax =  -4.03985370403197E-03  1.86404158483100E-01
 cg2d: Sum(rhs),rhsMax =  -4.04044221781501E-03  1.86409163968553E-01
 cg2d: Sum(rhs),rhsMax =  -4.04103172805991E-03  1.86414169426646E-01
 cg2d: Sum(rhs),rhsMax =  -4.04162222962880E-03  1.86419174860501E-01
 cg2d: Sum(rhs),rhsMax =  -4.04221371850098E-03  1.86424180273238E-01
 cg2d: Sum(rhs),rhsMax =  -4.04280618982141E-03  1.86429185667969E-01
 cg2d: Sum(rhs),rhsMax =  -4.04339963987478E-03  1.86434191047814E-01
 cg2d: Sum(rhs),rhsMax =  -4.04399406326259E-03  1.86439196415890E-01
 cg2d: Sum(rhs),rhsMax =  -4.04458945619288E-03  1.86444201775310E-01
 cg2d: Sum(rhs),rhsMax =  -4.04518581377922E-03  1.86449207129184E-01
 cg2d: Sum(rhs),rhsMax =  -4.04578313191887E-03  1.86454212480620E-01
 cg2d: Sum(rhs),rhsMax =  -4.04638140615865E-03  1.86459217832724E-01
 cg2d: Sum(rhs),rhsMax =  -4.04698063177596E-03  1.86464223188609E-01
(PID.TID 0000.0001)      cg2d_init_res =   6.25892398885961E-04
(PID.TID 0000.0001)      cg2d_iters(min,last) =      -1      74
(PID.TID 0000.0001)      cg2d_last_res =   8.29243932307163E-08
(PID.TID 0000.0001) // =======================================================
(PID.TID 0000.0001) // Begin MONITOR dynamic field statistics
(PID.TID 0000.0001) // =======================================================
(PID.TID 0000.0001) %MON time_tsnumber                =                 11376
(PID.TID 0000.0001) %MON time_secondsf                =   1.3651200000000E+07
(PID.TID 0000.0001) %MON dynstat_eta_max              =   2.6019804352533E-01
(PID.TID 0000.0001) %MON dynstat_eta_min              =  -9.1009069378552E-02
(PID.TID 0000.0001) %MON dynstat_eta_mean             =   3.7718126739646E-06
(PID.TID 0000.0001) %MON dynstat_eta_sd               =   1.0408464712494E-01
(PID.TID 0000.0001) %MON dynstat_eta_del2             =   2.8443651396480E-05
(PID.TID 0000.0001) %MON dynstat_uvel_max             =   1.4052660987192E-01
(PID.TID 0000.0001) %MON dynstat_uvel_min             =  -9.6884547636459E-02
(PID.TID 0000.0001) %MON dynstat_uvel_mean            =   4.3657963049087E-08
(PID.TID 0000.0001) %MON dynstat_uvel_sd              =   4.3020335338166E-02
(PID.TID 0000.0001) %MON dynstat_uvel_del2            =   6.6884321566774E-05
(PID.TID 0000.0001) %MON dynstat_vvel_max             =   8.1213372657587E-02
(PID.TID 0000.0001) %MON dynstat_vvel_min             =  -1.0997131436173E-01
(PID.TID 0000.0001) %MON dynstat_vvel_mean            =   1.5218176331742E-07
(PID.TID 0000.0001) %MON dynstat_vvel_sd              =   3.8870143195481E-02
(PID.TID 0000.0001) %MON dynstat_vvel_del2            =   4.1081179331022E-05
(PID.TID 0000.0001) %MON dynstat_wvel_max             =   1.7871621266240E-08
(PID.TID 0000.0001) %MON dynstat_wvel_min             =  -7.9758784748265E-09
(PID.TID 0000.0001) %MON dynstat_wvel_mean            =  -4.5496650121398E-21
(PID.TID 0000.0001) %MON dynstat_wvel_sd              =   5.7346420825857E-09
(PID.TID 0000.0001) %MON dynstat_wvel_del2            =   2.0121248581045E-12
(PID.TID 0000.0001) %MON dynstat_theta_max            =   2.0000000000000E+01
(PID.TID 0000.0001) %MON dynstat_theta_min            =   2.0000000000000E+01
(PID.TID 0000.0001) %MON dynstat_theta_mean           =   2.0000000000000E+01
(PID.TID 0000.0001) %MON dynstat_theta_sd             =   3.8014036363165E-13
(PID.TID 0000.0001) %MON dynstat_theta_del2           =   0.0000000000000E+00
(PID.TID 0000.0001) %MON dynstat_salt_max             =   3.0000000000000E+01
(PID.TID 0000.0001) %MON dynstat_salt_min             =   3.0000000000000E+01
(PID.TID 0000.0001) %MON dynstat_salt_mean            =   2.9999999999999E+01
(PID.TID 0000.0001) %MON dynstat_salt_sd              =   5.5777604757167E-13
(PID.TID 0000.0001) %MON dynstat_salt_del2            =   0.0000000000000E+00
(PID.TID 0000.0001) %MON trAdv_CFL_u_max              =   8.4306318739290E-03
(PID.TID 0000.0001) %MON trAdv_CFL_v_max              =   6.5892968595987E-03
(PID.TID 0000.0001) %MON trAdv_CFL_w_max              =   4.6734189107908E-09
(PID.TID 0000.0001) %MON advcfl_uvel_max              =   8.4315965923153E-03
(PID.TID 0000.0001) %MON advcfl_vvel_max              =   6.5982788617040E-03
(PID.TID 0000.0001) %MON advcfl_wvel_max              =   8.5783782077953E-09
(PID.TID 0000.0001) %MON advcfl_W_hf_max              =   0.0000000000000E+00
(PID.TID 0000.0001) %MON pe_b_mean                    =   1.1106996689034E-05
(PID.TID 0000.0001) %MON ke_max                       =   9.8866156347004E-03
(PID.TID 0000.0001) %MON ke_mean                      =   1.6499107136666E-03
(PID.TID 0000.0001) %MON ke_vol                       =   6.8893493896486E+15
(PID.TID 0000.0001) %MON vort_r_min                   =  -1.0283293454533E-06
(PID.TID 0000.0001) %MON vort_r_max                   =   3.0444756687573E-06
(PID.TID 0000.0001) %MON vort_a_mean                  =   1.0600000000000E-04
(PID.TID 0000.0001) %MON vort_a_sd                    =   3.5581333656131E-06
(PID.TID 0000.0001) %MON vort_p_mean                  =   1.1652272308690E-04
(PID.TID 0000.0001) %MON vort_p_sd                    =   4.1787529555028E-05
(PID.TID 0000.0001) %MON surfExpan_theta_mean         =  -9.1002208238125E-20
(PID.TID 0000.0001) %MON surfExpan_salt_mean          =  -1.3650978619100E-19
(PID.TID 0000.0001) // =======================================================
(PID.TID 0000.0001) // End MONITOR dynamic field statistics
(PID.TID 0000.0001) // =======================================================
 cg2d: Sum(rhs),rhsMax =  -4.04758080425227E-03  1.86469228551374E-01
 cg2d: Sum(rhs),rhsMax =  -4.04818191975874E-03  1.86474233924120E-01
 cg2d: Sum(rhs),rhsMax =  -4.04878397320026E-03  1.86479239309954E-01
 cg2d: Sum(rhs),rhsMax =  -4.04938696049113E-03  1.86484244711972E-01
 cg2d: Sum(rhs),rhsMax =  -4.04999071815355E-03  1.86489257462919E-01
 cg2d: Sum(rhs),rhsMax =  -4.05059420946609E-03  1.86494325099384E-01
 cg2d: Sum(rhs),rhsMax =  -4.05119862449037E-03  1.86499392586785E-01
 cg2d: Sum(rhs),rhsMax =  -4.05180395941487E-03  1.86504459928962E-01
 cg2d: Sum(rhs),rhsMax =  -4.05241020986094E-03  1.86509527129746E-01
 cg2d: Sum(rhs),rhsMax =  -4.05301737079863E-03  1.86514594192973E-01
 cg2d: Sum(rhs),rhsMax =  -4.05362543865948E-03  1.86519661122476E-01
 cg2d: Sum(rhs),rhsMax =  -4.05423440874853E-03  1.86524727922083E-01
 cg2d: Sum(rhs),rhsMax =  -4.05484427657368E-03  1.86529794595629E-01
 cg2d: Sum(rhs),rhsMax =  -4.05545503787998E-03  1.86534861146930E-01
 cg2d: Sum(rhs),rhsMax =  -4.05606668831656E-03  1.86539927579822E-01
 cg2d: Sum(rhs),rhsMax =  -4.05667922371378E-03  1.86544993898121E-01
 cg2d: Sum(rhs),rhsMax =  -4.05729263966541E-03  1.86550060105655E-01
 cg2d: Sum(rhs),rhsMax =  -4.05790693152394E-03  1.86555126206243E-01
 cg2d: Sum(rhs),rhsMax =  -4.05852209553809E-03  1.86560192203713E-01
 cg2d: Sum(rhs),rhsMax =  -4.05913812688328E-03  1.86565258101871E-01
 cg2d: Sum(rhs),rhsMax =  -4.05975502156947E-03  1.86570323904543E-01
 cg2d: Sum(rhs),rhsMax =  -4.06037277531893E-03  1.86575389615539E-01
 cg2d: Sum(rhs),rhsMax =  -4.06099138361353E-03  1.86580455238670E-01
 cg2d: Sum(rhs),rhsMax =  -4.06161084237680E-03  1.86585520777755E-01
 cg2d: Sum(rhs),rhsMax =  -4.06223114728879E-03  1.86590586236601E-01
 cg2d: Sum(rhs),rhsMax =  -4.06285229377187E-03  1.86595651619019E-01
 cg2d: Sum(rhs),rhsMax =  -4.06347427763941E-03  1.86600716928811E-01
 cg2d: Sum(rhs),rhsMax =  -4.06409709500425E-03  1.86605782169788E-01
 cg2d: Sum(rhs),rhsMax =  -4.06472074139845E-03  1.86610847345752E-01
 cg2d: Sum(rhs),rhsMax =  -4.06534521237018E-03  1.86615912460507E-01
 cg2d: Sum(rhs),rhsMax =  -4.06597050416129E-03  1.86620977517847E-01
 cg2d: Sum(rhs),rhsMax =  -4.06659661248185E-03  1.86626042521583E-01
 cg2d: Sum(rhs),rhsMax =  -4.06722353266681E-03  1.86631107475500E-01
 cg2d: Sum(rhs),rhsMax =  -4.06785126092179E-03  1.86636172383401E-01
 cg2d: Sum(rhs),rhsMax =  -4.06847979280207E-03  1.86641237249081E-01
 cg2d: Sum(rhs),rhsMax =  -4.06910912431426E-03  1.86646302076328E-01
 cg2d: Sum(rhs),rhsMax =  -4.06973925112892E-03  1.86651366868937E-01
 cg2d: Sum(rhs),rhsMax =  -4.07037016911295E-03  1.86656431630695E-01
 cg2d: Sum(rhs),rhsMax =  -4.07100187389205E-03  1.86661496365392E-01
 cg2d: Sum(rhs),rhsMax =  -4.07163436144764E-03  1.86666561076805E-01
 cg2d: Sum(rhs),rhsMax =  -4.07226762787239E-03  1.86671625768733E-01
 cg2d: Sum(rhs),rhsMax =  -4.07290166861565E-03  1.86676690444946E-01
 cg2d: Sum(rhs),rhsMax =  -4.07353647969029E-03  1.86681755109231E-01
 cg2d: Sum(rhs),rhsMax =  -4.07417205711069E-03  1.86686819765363E-01
 cg2d: Sum(rhs),rhsMax =  -4.07480839661260E-03  1.86691884417122E-01
 cg2d: Sum(rhs),rhsMax =  -4.07544549374679E-03  1.86696949068285E-01
 cg2d: Sum(rhs),rhsMax =  -4.07608334496749E-03  1.86702013722619E-01
 cg2d: Sum(rhs),rhsMax =  -4.07672194563451E-03  1.86707078383902E-01
 cg2d: Sum(rhs),rhsMax =  -4.07736129191983E-03  1.86712143055905E-01
 cg2d: Sum(rhs),rhsMax =  -4.07800137944648E-03  1.86717207742392E-01
 cg2d: Sum(rhs),rhsMax =  -4.07864220438205E-03  1.86722272447133E-01
 cg2d: Sum(rhs),rhsMax =  -4.07928376242046E-03  1.86727337173887E-01
 cg2d: Sum(rhs),rhsMax =  -4.07992604980090E-03  1.86732401926426E-01
 cg2d: Sum(rhs),rhsMax =  -4.08056906224410E-03  1.86737466708505E-01
 cg2d: Sum(rhs),rhsMax =  -4.08121279581879E-03  1.86742531523886E-01
 cg2d: Sum(rhs),rhsMax =  -4.08185724613331E-03  1.86747596376327E-01
 cg2d: Sum(rhs),rhsMax =  -4.08250240919975E-03  1.86752661269583E-01
 cg2d: Sum(rhs),rhsMax =  -4.08314828144984E-03  1.86757726207407E-01
 cg2d: Sum(rhs),rhsMax =  -4.08379485846195E-03  1.86762791193556E-01
 cg2d: Sum(rhs),rhsMax =  -4.08444213640955E-03  1.86767856231768E-01
 cg2d: Sum(rhs),rhsMax =  -4.08509011048781E-03  1.86772921325810E-01
 cg2d: Sum(rhs),rhsMax =  -4.08573877760028E-03  1.86777986479410E-01
 cg2d: Sum(rhs),rhsMax =  -4.08638813321580E-03  1.86783051696327E-01
 cg2d: Sum(rhs),rhsMax =  -4.08703817335276E-03  1.86788116980296E-01
 cg2d: Sum(rhs),rhsMax =  -4.08768889465458E-03  1.86793182335064E-01
 cg2d: Sum(rhs),rhsMax =  -4.08834029216841E-03  1.86798247764363E-01
 cg2d: Sum(rhs),rhsMax =  -4.08899236238035E-03  1.86803313271934E-01
 cg2d: Sum(rhs),rhsMax =  -4.08964510137924E-03  1.86808378861513E-01
 cg2d: Sum(rhs),rhsMax =  -4.09029850472842E-03  1.86813444536831E-01
 cg2d: Sum(rhs),rhsMax =  -4.09095256916965E-03  1.86818510301621E-01
 cg2d: Sum(rhs),rhsMax =  -4.09160729006382E-03  1.86823576159614E-01
 cg2d: Sum(rhs),rhsMax =  -4.09226266378726E-03  1.86828642114537E-01
(PID.TID 0000.0001)      cg2d_init_res =   6.19672505190465E-04
(PID.TID 0000.0001)      cg2d_iters(min,last) =      -1      74
(PID.TID 0000.0001)      cg2d_last_res =   8.55224526156149E-08
(PID.TID 0000.0001) // =======================================================
(PID.TID 0000.0001) // Begin MONITOR dynamic field statistics
(PID.TID 0000.0001) // =======================================================
(PID.TID 0000.0001) %MON time_tsnumber                =                 11448
(PID.TID 0000.0001) %MON time_secondsf                =   1.3737600000000E+07
(PID.TID 0000.0001) %MON dynstat_eta_max              =   2.6147629939261E-01
(PID.TID 0000.0001) %MON dynstat_eta_min              =  -9.1267389436298E-02
(PID.TID 0000.0001) %MON dynstat_eta_mean             =   3.8215167186710E-06
(PID.TID 0000.0001) %MON dynstat_eta_sd               =   1.0454652081713E-01
(PID.TID 0000.0001) %MON dynstat_eta_del2             =   2.8542679042376E-05
(PID.TID 0000.0001) %MON dynstat_uvel_max             =   1.4088052352165E-01
(PID.TID 0000.0001) %MON dynstat_uvel_min             =  -9.7540680811357E-02
(PID.TID 0000.0001) %MON dynstat_uvel_mean            =   4.7986667651170E-08
(PID.TID 0000.0001) %MON dynstat_uvel_sd              =   4.3208068328156E-02
(PID.TID 0000.0001) %MON dynstat_uvel_del2            =   6.7009571486428E-05
(PID.TID 0000.0001) %MON dynstat_vvel_max             =   8.1657832932442E-02
(PID.TID 0000.0001) %MON dynstat_vvel_min             =  -1.1044544627211E-01
(PID.TID 0000.0001) %MON dynstat_vvel_mean            =   1.4362619691419E-07
(PID.TID 0000.0001) %MON dynstat_vvel_sd              =   3.9033214438252E-02
(PID.TID 0000.0001) %MON dynstat_vvel_del2            =   4.1063133302803E-05
(PID.TID 0000.0001) %MON dynstat_wvel_max             =   1.7764080259949E-08
(PID.TID 0000.0001) %MON dynstat_wvel_min             =  -7.5940299381909E-09
(PID.TID 0000.0001) %MON dynstat_wvel_mean            =   9.7008271243087E-22
(PID.TID 0000.0001) %MON dynstat_wvel_sd              =   5.7140883216633E-09
(PID.TID 0000.0001) %MON dynstat_wvel_del2            =   1.9965612067741E-12
(PID.TID 0000.0001) %MON dynstat_theta_max            =   2.0000000000000E+01
(PID.TID 0000.0001) %MON dynstat_theta_min            =   2.0000000000000E+01
(PID.TID 0000.0001) %MON dynstat_theta_mean           =   2.0000000000000E+01
(PID.TID 0000.0001) %MON dynstat_theta_sd             =   3.8014036363165E-13
(PID.TID 0000.0001) %MON dynstat_theta_del2           =   0.0000000000000E+00
(PID.TID 0000.0001) %MON dynstat_salt_max             =   3.0000000000000E+01
(PID.TID 0000.0001) %MON dynstat_salt_min             =   3.0000000000000E+01
(PID.TID 0000.0001) %MON dynstat_salt_mean            =   2.9999999999999E+01
(PID.TID 0000.0001) %MON dynstat_salt_sd              =   5.5777604757167E-13
(PID.TID 0000.0001) %MON dynstat_salt_del2            =   0.0000000000000E+00
(PID.TID 0000.0001) %MON trAdv_CFL_u_max              =   8.4518718290849E-03
(PID.TID 0000.0001) %MON trAdv_CFL_v_max              =   6.6176985546704E-03
(PID.TID 0000.0001) %MON trAdv_CFL_w_max              =   4.6482590724712E-09
(PID.TID 0000.0001) %MON advcfl_uvel_max              =   8.4528314112988E-03
(PID.TID 0000.0001) %MON advcfl_vvel_max              =   6.6267267763268E-03
(PID.TID 0000.0001) %MON advcfl_wvel_max              =   8.5267585247755E-09
(PID.TID 0000.0001) %MON advcfl_W_hf_max              =   0.0000000000000E+00
(PID.TID 0000.0001) %MON pe_b_mean                    =   1.1205789583680E-05
(PID.TID 0000.0001) %MON ke_max                       =   9.9360323810837E-03
(PID.TID 0000.0001) %MON ke_mean                      =   1.6640909310472E-03
(PID.TID 0000.0001) %MON ke_vol                       =   6.8893493896486E+15
(PID.TID 0000.0001) %MON vort_r_min                   =  -1.0310655051023E-06
(PID.TID 0000.0001) %MON vort_r_max                   =   3.0512306712036E-06
(PID.TID 0000.0001) %MON vort_a_mean                  =   1.0600000000000E-04
(PID.TID 0000.0001) %MON vort_a_sd                    =   3.5583529916763E-06
(PID.TID 0000.0001) %MON vort_p_mean                  =   1.1652272308690E-04
(PID.TID 0000.0001) %MON vort_p_sd                    =   4.1787563188871E-05
(PID.TID 0000.0001) %MON surfExpan_theta_mean         =   1.9437922876225E-20
(PID.TID 0000.0001) %MON surfExpan_salt_mean          =   2.9166358217481E-20
(PID.TID 0000.0001) // =======================================================
(PID.TID 0000.0001) // End MONITOR dynamic field statistics
(PID.TID 0000.0001) // =======================================================
 cg2d: Sum(rhs),rhsMax =  -4.09291868591888E-03  1.86833708170112E-01
 cg2d: Sum(rhs),rhsMax =  -4.09357535285801E-03  1.86838774330068E-01
 cg2d: Sum(rhs),rhsMax =  -4.09423266093100E-03  1.86843840598121E-01
 cg2d: Sum(rhs),rhsMax =  -4.09489060584951E-03  1.86848906977998E-01
 cg2d: Sum(rhs),rhsMax =  -4.09554918345913E-03  1.86853973473412E-01
 cg2d: Sum(rhs),rhsMax =  -4.09620839036540E-03  1.86859040088080E-01
 cg2d: Sum(rhs),rhsMax =  -4.09686822232039E-03  1.86864106825715E-01
 cg2d: Sum(rhs),rhsMax =  -4.09752867528811E-03  1.86869173690031E-01
 cg2d: Sum(rhs),rhsMax =  -4.09818974581006E-03  1.86874240684736E-01
 cg2d: Sum(rhs),rhsMax =  -4.09885142967380E-03  1.86879307813539E-01
 cg2d: Sum(rhs),rhsMax =  -4.09951372260075E-03  1.86884375080147E-01
 cg2d: Sum(rhs),rhsMax =  -4.10017662138129E-03  1.86889442488259E-01
 cg2d: Sum(rhs),rhsMax =  -4.10084012170028E-03  1.86894510041583E-01
 cg2d: Sum(rhs),rhsMax =  -4.10150421995128E-03  1.86899577743814E-01
 cg2d: Sum(rhs),rhsMax =  -4.10216891193763E-03  1.86904645598653E-01
 cg2d: Sum(rhs),rhsMax =  -4.10283419388759E-03  1.86909713609792E-01
 cg2d: Sum(rhs),rhsMax =  -4.10350006171321E-03  1.86914781780930E-01
 cg2d: Sum(rhs),rhsMax =  -4.10416651218466E-03  1.86919850115756E-01
 cg2d: Sum(rhs),rhsMax =  -4.10483354087021E-03  1.86924918617959E-01
 cg2d: Sum(rhs),rhsMax =  -4.10550114403718E-03  1.86929987291225E-01
 cg2d: Sum(rhs),rhsMax =  -4.10616931761395E-03  1.86935056139245E-01
 cg2d: Sum(rhs),rhsMax =  -4.10683805827213E-03  1.86940125165694E-01
 cg2d: Sum(rhs),rhsMax =  -4.10750736139974E-03  1.86945194374262E-01
 cg2d: Sum(rhs),rhsMax =  -4.10817722409351E-03  1.86950263768619E-01
 cg2d: Sum(rhs),rhsMax =  -4.10884764200726E-03  1.86955333352449E-01
 cg2d: Sum(rhs),rhsMax =  -4.10951861101011E-03  1.86960403129424E-01
 cg2d: Sum(rhs),rhsMax =  -4.11019012795928E-03  1.86965473103219E-01
 cg2d: Sum(rhs),rhsMax =  -4.11086218839858E-03  1.86970543277502E-01
 cg2d: Sum(rhs),rhsMax =  -4.11153478911628E-03  1.86975613655941E-01
 cg2d: Sum(rhs),rhsMax =  -4.11220792602934E-03  1.86980684242203E-01
 cg2d: Sum(rhs),rhsMax =  -4.11288159517341E-03  1.86985755039951E-01
 cg2d: Sum(rhs),rhsMax =  -4.11355579279929E-03  1.86990826052851E-01
 cg2d: Sum(rhs),rhsMax =  -4.11423051528743E-03  1.86995897284560E-01
 cg2d: Sum(rhs),rhsMax =  -4.11490575876425E-03  1.87000968738739E-01
 cg2d: Sum(rhs),rhsMax =  -4.11558151902565E-03  1.87006040419035E-01
 cg2d: Sum(rhs),rhsMax =  -4.11625779307782E-03  1.87011112329113E-01
 cg2d: Sum(rhs),rhsMax =  -4.11693457637146E-03  1.87016184472608E-01
 cg2d: Sum(rhs),rhsMax =  -4.11761186593695E-03  1.87021256853186E-01
 cg2d: Sum(rhs),rhsMax =  -4.11828965723701E-03  1.87026329474486E-01
 cg2d: Sum(rhs),rhsMax =  -4.11896794659475E-03  1.87031402340149E-01
 cg2d: Sum(rhs),rhsMax =  -4.11964673102838E-03  1.87036475453822E-01
 cg2d: Sum(rhs),rhsMax =  -4.12032600574917E-03  1.87041548819146E-01
 cg2d: Sum(rhs),rhsMax =  -4.12100576767327E-03  1.87046622439753E-01
 cg2d: Sum(rhs),rhsMax =  -4.12168601315802E-03  1.87051696319287E-01
 cg2d: Sum(rhs),rhsMax =  -4.12236673764964E-03  1.87056770461369E-01
 cg2d: Sum(rhs),rhsMax =  -4.12304793802606E-03  1.87061844869641E-01
 cg2d: Sum(rhs),rhsMax =  -4.12372961030157E-03  1.87066919547724E-01
 cg2d: Sum(rhs),rhsMax =  -4.12441175089257E-03  1.87071994499252E-01
 cg2d: Sum(rhs),rhsMax =  -4.12509435599287E-03  1.87077069727842E-01
 cg2d: Sum(rhs),rhsMax =  -4.12577742197257E-03  1.87082145237117E-01
 cg2d: Sum(rhs),rhsMax =  -4.12646094529073E-03  1.87087221030703E-01
 cg2d: Sum(rhs),rhsMax =  -4.12714492185040E-03  1.87092297112208E-01
 cg2d: Sum(rhs),rhsMax =  -4.12782934782676E-03  1.87097373485255E-01
 cg2d: Sum(rhs),rhsMax =  -4.12851421990659E-03  1.87102450153455E-01
 cg2d: Sum(rhs),rhsMax =  -4.12919953420460E-03  1.87107527120413E-01
 cg2d: Sum(rhs),rhsMax =  -4.12988528688833E-03  1.87112604389740E-01
 cg2d: Sum(rhs),rhsMax =  -4.13057147464935E-03  1.87117681965041E-01
 cg2d: Sum(rhs),rhsMax =  -4.13125809334742E-03  1.87122759849923E-01
 cg2d: Sum(rhs),rhsMax =  -4.13194513968594E-03  1.87127838047981E-01
 cg2d: Sum(rhs),rhsMax =  -4.13263260957571E-03  1.87132916562818E-01
 cg2d: Sum(rhs),rhsMax =  -4.13332049965570E-03  1.87137995398027E-01
 cg2d: Sum(rhs),rhsMax =  -4.13400880592022E-03  1.87143074557204E-01
 cg2d: Sum(rhs),rhsMax =  -4.13469752515633E-03  1.87148154043946E-01
 cg2d: Sum(rhs),rhsMax =  -4.13538665335618E-03  1.87153233861830E-01
 cg2d: Sum(rhs),rhsMax =  -4.13607618699960E-03  1.87158314014449E-01
 cg2d: Sum(rhs),rhsMax =  -4.13676612233922E-03  1.87163394505386E-01
 cg2d: Sum(rhs),rhsMax =  -4.13745645535068E-03  1.87168475338225E-01
 cg2d: Sum(rhs),rhsMax =  -4.13814718322813E-03  1.87173556516545E-01
 cg2d: Sum(rhs),rhsMax =  -4.13883830164297E-03  1.87178638043915E-01
 cg2d: Sum(rhs),rhsMax =  -4.13952980663159E-03  1.87183719923925E-01
 cg2d: Sum(rhs),rhsMax =  -4.14022169534146E-03  1.87188802160141E-01
 cg2d: Sum(rhs),rhsMax =  -4.14091396339846E-03  1.87193884756124E-01
(PID.TID 0000.0001)      cg2d_init_res =   6.13743253929312E-04
(PID.TID 0000.0001)      cg2d_iters(min,last) =      -1      74
(PID.TID 0000.0001)      cg2d_last_res =   8.80735633365803E-08
(PID.TID 0000.0001) // =======================================================
(PID.TID 0000.0001) // Begin MONITOR dynamic field statistics
(PID.TID 0000.0001) // =======================================================
(PID.TID 0000.0001) %MON time_tsnumber                =                 11520
(PID.TID 0000.0001) %MON time_secondsf                =   1.3824000000000E+07
(PID.TID 0000.0001) %MON dynstat_eta_max              =   2.6277512786616E-01
(PID.TID 0000.0001) %MON dynstat_eta_min              =  -9.1534813764918E-02
(PID.TID 0000.0001) %MON dynstat_eta_mean             =   3.8745360693836E-06
(PID.TID 0000.0001) %MON dynstat_eta_sd               =   1.0500658170850E-01
(PID.TID 0000.0001) %MON dynstat_eta_del2             =   2.8640648656596E-05
(PID.TID 0000.0001) %MON dynstat_uvel_max             =   1.4122671522330E-01
(PID.TID 0000.0001) %MON dynstat_uvel_min             =  -9.8188239813666E-02
(PID.TID 0000.0001) %MON dynstat_uvel_mean            =   5.0281410432417E-08
(PID.TID 0000.0001) %MON dynstat_uvel_sd              =   4.3393263648646E-02
(PID.TID 0000.0001) %MON dynstat_uvel_del2            =   6.7133250688537E-05
(PID.TID 0000.0001) %MON dynstat_vvel_max             =   8.2094594587182E-02
(PID.TID 0000.0001) %MON dynstat_vvel_min             =  -1.1093066296264E-01
(PID.TID 0000.0001) %MON dynstat_vvel_mean            =   1.3473501874644E-07
(PID.TID 0000.0001) %MON dynstat_vvel_sd              =   3.9198141450356E-02
(PID.TID 0000.0001) %MON dynstat_vvel_del2            =   4.1041657112395E-05
(PID.TID 0000.0001) %MON dynstat_wvel_max             =   1.7657961901277E-08
(PID.TID 0000.0001) %MON dynstat_wvel_min             =  -7.3366669326788E-09
(PID.TID 0000.0001) %MON dynstat_wvel_mean            =   3.6345798232813E-21
(PID.TID 0000.0001) %MON dynstat_wvel_sd              =   5.6938026636000E-09
(PID.TID 0000.0001) %MON dynstat_wvel_del2            =   1.9820771747523E-12
(PID.TID 0000.0001) %MON dynstat_theta_max            =   2.0000000000000E+01
(PID.TID 0000.0001) %MON dynstat_theta_min            =   2.0000000000000E+01
(PID.TID 0000.0001) %MON dynstat_theta_mean           =   2.0000000000000E+01
(PID.TID 0000.0001) %MON dynstat_theta_sd             =   3.8014036363165E-13
(PID.TID 0000.0001) %MON dynstat_theta_del2           =   0.0000000000000E+00
(PID.TID 0000.0001) %MON dynstat_salt_max             =   3.0000000000000E+01
(PID.TID 0000.0001) %MON dynstat_salt_min             =   3.0000000000000E+01
(PID.TID 0000.0001) %MON dynstat_salt_mean            =   2.9999999999999E+01
(PID.TID 0000.0001) %MON dynstat_salt_sd              =   5.5777604757167E-13
(PID.TID 0000.0001) %MON dynstat_salt_del2            =   0.0000000000000E+00
(PID.TID 0000.0001) %MON trAdv_CFL_u_max              =   8.4726477460790E-03
(PID.TID 0000.0001) %MON trAdv_CFL_v_max              =   6.6467644161195E-03
(PID.TID 0000.0001) %MON trAdv_CFL_w_max              =   4.6301128008021E-09
(PID.TID 0000.0001) %MON advcfl_uvel_max              =   8.4736029133977E-03
(PID.TID 0000.0001) %MON advcfl_vvel_max              =   6.6558397777587E-03
(PID.TID 0000.0001) %MON advcfl_wvel_max              =   8.4758217126131E-09
(PID.TID 0000.0001) %MON advcfl_W_hf_max              =   0.0000000000000E+00
(PID.TID 0000.0001) %MON pe_b_mean                    =   1.1304629576916E-05
(PID.TID 0000.0001) %MON ke_max                       =   9.9845924914290E-03
(PID.TID 0000.0001) %MON ke_mean                      =   1.6782951546283E-03
(PID.TID 0000.0001) %MON ke_vol                       =   6.8893493896486E+15
(PID.TID 0000.0001) %MON vort_r_min                   =  -1.0331214558996E-06
(PID.TID 0000.0001) %MON vort_r_max                   =   3.0578635863794E-06
(PID.TID 0000.0001) %MON vort_a_mean                  =   1.0600000000000E-04
(PID.TID 0000.0001) %MON vort_a_sd                    =   3.5585700171582E-06
(PID.TID 0000.0001) %MON vort_p_mean                  =   1.1652272308690E-04
(PID.TID 0000.0001) %MON vort_p_sd                    =   4.1787591888268E-05
(PID.TID 0000.0001) %MON surfExpan_theta_mean         =   7.2716627780917E-20
(PID.TID 0000.0001) %MON surfExpan_salt_mean          =   1.0907620485846E-19
(PID.TID 0000.0001) // =======================================================
(PID.TID 0000.0001) // End MONITOR dynamic field statistics
(PID.TID 0000.0001) // =======================================================
 cg2d: Sum(rhs),rhsMax =  -4.14160660790654E-03  1.87198967715450E-01
 cg2d: Sum(rhs),rhsMax =  -4.14229962462588E-03  1.87204051041678E-01
 cg2d: Sum(rhs),rhsMax =  -4.14299301023934E-03  1.87209134738377E-01
 cg2d: Sum(rhs),rhsMax =  -4.14368676114291E-03  1.87214218809104E-01
 cg2d: Sum(rhs),rhsMax =  -4.14438087356700E-03  1.87219303257416E-01
 cg2d: Sum(rhs),rhsMax =  -4.14507534339677E-03  1.87224388086869E-01
 cg2d: Sum(rhs),rhsMax =  -4.14577016778843E-03  1.87229473301011E-01
 cg2d: Sum(rhs),rhsMax =  -4.14646534330054E-03  1.87234558903400E-01
 cg2d: Sum(rhs),rhsMax =  -4.14716086511894E-03  1.87239644897575E-01
 cg2d: Sum(rhs),rhsMax =  -4.14785673032458E-03  1.87244731287084E-01
 cg2d: Sum(rhs),rhsMax =  -4.14855293566488E-03  1.87249818075476E-01
 cg2d: Sum(rhs),rhsMax =  -4.14924947708114E-03  1.87254905266281E-01
 cg2d: Sum(rhs),rhsMax =  -4.14994635078816E-03  1.87259992863040E-01
 cg2d: Sum(rhs),rhsMax =  -4.15064355369139E-03  1.87265080869288E-01
 cg2d: Sum(rhs),rhsMax =  -4.15134108191821E-03  1.87270169288560E-01
 cg2d: Sum(rhs),rhsMax =  -4.15203893174635E-03  1.87275258124383E-01
 cg2d: Sum(rhs),rhsMax =  -4.15273709968391E-03  1.87280347380281E-01
 cg2d: Sum(rhs),rhsMax =  -4.15343558228371E-03  1.87285437059789E-01
 cg2d: Sum(rhs),rhsMax =  -4.15413437599616E-03  1.87290527166413E-01
 cg2d: Sum(rhs),rhsMax =  -4.15483347664763E-03  1.87295617703691E-01
 cg2d: Sum(rhs),rhsMax =  -4.15553288112912E-03  1.87300708675128E-01
 cg2d: Sum(rhs),rhsMax =  -4.15623258583335E-03  1.87305800084241E-01
 cg2d: Sum(rhs),rhsMax =  -4.15693258725274E-03  1.87310891934536E-01
 cg2d: Sum(rhs),rhsMax =  -4.15763288154694E-03  1.87315984229532E-01
 cg2d: Sum(rhs),rhsMax =  -4.15833346523629E-03  1.87321076972732E-01
 cg2d: Sum(rhs),rhsMax =  -4.15903433482390E-03  1.87326170167637E-01
 cg2d: Sum(rhs),rhsMax =  -4.15973548673081E-03  1.87331263817754E-01
 cg2d: Sum(rhs),rhsMax =  -4.16043691699231E-03  1.87336357926573E-01
 cg2d: Sum(rhs),rhsMax =  -4.16113862250098E-03  1.87341452497599E-01
 cg2d: Sum(rhs),rhsMax =  -4.16184059985268E-03  1.87346547534322E-01
 cg2d: Sum(rhs),rhsMax =  -4.16254284494034E-03  1.87351643040231E-01
 cg2d: Sum(rhs),rhsMax =  -4.16324535467893E-03  1.87356739018813E-01
 cg2d: Sum(rhs),rhsMax =  -4.16394812492986E-03  1.87361835473561E-01
 cg2d: Sum(rhs),rhsMax =  -4.16465115258564E-03  1.87366932407948E-01
 cg2d: Sum(rhs),rhsMax =  -4.16535443402719E-03  1.87372029825459E-01
 cg2d: Sum(rhs),rhsMax =  -4.16605796545516E-03  1.87377127729576E-01
 cg2d: Sum(rhs),rhsMax =  -4.16676174347037E-03  1.87382226123765E-01
 cg2d: Sum(rhs),rhsMax =  -4.16746576473292E-03  1.87387325011502E-01
 cg2d: Sum(rhs),rhsMax =  -4.16817002520555E-03  1.87392424396255E-01
 cg2d: Sum(rhs),rhsMax =  -4.16887452187995E-03  1.87397524281495E-01
 cg2d: Sum(rhs),rhsMax =  -4.16957925127271E-03  1.87402624670681E-01
 cg2d: Sum(rhs),rhsMax =  -4.17028420948234E-03  1.87407725567274E-01
 cg2d: Sum(rhs),rhsMax =  -4.17098939292216E-03  1.87412826974734E-01
 cg2d: Sum(rhs),rhsMax =  -4.17169479820384E-03  1.87417928896524E-01
 cg2d: Sum(rhs),rhsMax =  -4.17240042169801E-03  1.87423031336085E-01
 cg2d: Sum(rhs),rhsMax =  -4.17310625987561E-03  1.87428134296872E-01
 cg2d: Sum(rhs),rhsMax =  -4.17381230941976E-03  1.87433237782335E-01
 cg2d: Sum(rhs),rhsMax =  -4.17451856656043E-03  1.87438341795918E-01
 cg2d: Sum(rhs),rhsMax =  -4.17522502794876E-03  1.87443446341058E-01
 cg2d: Sum(rhs),rhsMax =  -4.17593169018330E-03  1.87448551421198E-01
 cg2d: Sum(rhs),rhsMax =  -4.17663854957684E-03  1.87453657039779E-01
 cg2d: Sum(rhs),rhsMax =  -4.17734560232617E-03  1.87458763200228E-01
 cg2d: Sum(rhs),rhsMax =  -4.17805284517427E-03  1.87463869905977E-01
 cg2d: Sum(rhs),rhsMax =  -4.17876027442836E-03  1.87468977160456E-01
 cg2d: Sum(rhs),rhsMax =  -4.17946788716379E-03  1.87474084967089E-01
 cg2d: Sum(rhs),rhsMax =  -4.18017567904886E-03  1.87479193329302E-01
 cg2d: Sum(rhs),rhsMax =  -4.18088364723689E-03  1.87484302250510E-01
 cg2d: Sum(rhs),rhsMax =  -4.18159178777944E-03  1.87489411734128E-01
 cg2d: Sum(rhs),rhsMax =  -4.18230009734973E-03  1.87494521783580E-01
 cg2d: Sum(rhs),rhsMax =  -4.18300857268205E-03  1.87499632402265E-01
 cg2d: Sum(rhs),rhsMax =  -4.18371720980160E-03  1.87504743593601E-01
 cg2d: Sum(rhs),rhsMax =  -4.18442600540690E-03  1.87509855360988E-01
 cg2d: Sum(rhs),rhsMax =  -4.18513495610136E-03  1.87514967707831E-01
 cg2d: Sum(rhs),rhsMax =  -4.18584405790294E-03  1.87520080637531E-01
 cg2d: Sum(rhs),rhsMax =  -4.18655330790139E-03  1.87525194153484E-01
 cg2d: Sum(rhs),rhsMax =  -4.18726270241674E-03  1.87530308259079E-01
 cg2d: Sum(rhs),rhsMax =  -4.18797223787344E-03  1.87535422957715E-01
 cg2d: Sum(rhs),rhsMax =  -4.18868191118770E-03  1.87540538252775E-01
 cg2d: Sum(rhs),rhsMax =  -4.18939171816916E-03  1.87545654147647E-01
 cg2d: Sum(rhs),rhsMax =  -4.19010165618304E-03  1.87550770645712E-01
 cg2d: Sum(rhs),rhsMax =  -4.19081172073547E-03  1.87555887750348E-01
 cg2d: Sum(rhs),rhsMax =  -4.19152190894553E-03  1.87561005464941E-01
(PID.TID 0000.0001)      cg2d_init_res =   6.08161363547127E-04
(PID.TID 0000.0001)      cg2d_iters(min,last) =      -1      74
(PID.TID 0000.0001)      cg2d_last_res =   9.02855026340898E-08
(PID.TID 0000.0001) // =======================================================
(PID.TID 0000.0001) // Begin MONITOR dynamic field statistics
(PID.TID 0000.0001) // =======================================================
(PID.TID 0000.0001) %MON time_tsnumber                =                 11592
(PID.TID 0000.0001) %MON time_secondsf                =   1.3910400000000E+07
(PID.TID 0000.0001) %MON dynstat_eta_max              =   2.6410544306354E-01
(PID.TID 0000.0001) %MON dynstat_eta_min              =  -9.1812005043832E-02
(PID.TID 0000.0001) %MON dynstat_eta_mean             =   3.9295891723618E-06
(PID.TID 0000.0001) %MON dynstat_eta_sd               =   1.0546512361657E-01
(PID.TID 0000.0001) %MON dynstat_eta_del2             =   2.8737497461366E-05
(PID.TID 0000.0001) %MON dynstat_uvel_max             =   1.4156612383451E-01
(PID.TID 0000.0001) %MON dynstat_uvel_min             =  -9.8822890565698E-02
(PID.TID 0000.0001) %MON dynstat_uvel_mean            =   5.0454032084852E-08
(PID.TID 0000.0001) %MON dynstat_uvel_sd              =   4.3575719789981E-02
(PID.TID 0000.0001) %MON dynstat_uvel_del2            =   6.7255080454521E-05
(PID.TID 0000.0001) %MON dynstat_vvel_max             =   8.2525539272165E-02
(PID.TID 0000.0001) %MON dynstat_vvel_min             =  -1.1142687248696E-01
(PID.TID 0000.0001) %MON dynstat_vvel_mean            =   1.2579903970708E-07
(PID.TID 0000.0001) %MON dynstat_vvel_sd              =   3.9365231820140E-02
(PID.TID 0000.0001) %MON dynstat_vvel_del2            =   4.1017046361506E-05
(PID.TID 0000.0001) %MON dynstat_wvel_max             =   1.7550707022892E-08
(PID.TID 0000.0001) %MON dynstat_wvel_min             =  -7.3568552237703E-09
(PID.TID 0000.0001) %MON dynstat_wvel_mean            =  -6.5694040232403E-21
(PID.TID 0000.0001) %MON dynstat_wvel_sd              =   5.6735724480731E-09
(PID.TID 0000.0001) %MON dynstat_wvel_del2            =   1.9686161512488E-12
(PID.TID 0000.0001) %MON dynstat_theta_max            =   2.0000000000000E+01
(PID.TID 0000.0001) %MON dynstat_theta_min            =   2.0000000000000E+01
(PID.TID 0000.0001) %MON dynstat_theta_mean           =   2.0000000000000E+01
(PID.TID 0000.0001) %MON dynstat_theta_sd             =   3.8014036363165E-13
(PID.TID 0000.0001) %MON dynstat_theta_del2           =   0.0000000000000E+00
(PID.TID 0000.0001) %MON dynstat_salt_max             =   3.0000000000000E+01
(PID.TID 0000.0001) %MON dynstat_salt_min             =   3.0000000000000E+01
(PID.TID 0000.0001) %MON dynstat_salt_mean            =   2.9999999999999E+01
(PID.TID 0000.0001) %MON dynstat_salt_sd              =   5.5777604757167E-13
(PID.TID 0000.0001) %MON dynstat_salt_del2            =   0.0000000000000E+00
(PID.TID 0000.0001) %MON trAdv_CFL_u_max              =   8.4930159061143E-03
(PID.TID 0000.0001) %MON trAdv_CFL_v_max              =   6.6764891893608E-03
(PID.TID 0000.0001) %MON trAdv_CFL_w_max              =   4.6021286524671E-09
(PID.TID 0000.0001) %MON advcfl_uvel_max              =   8.4939674300704E-03
(PID.TID 0000.0001) %MON advcfl_vvel_max              =   6.6856123492179E-03
(PID.TID 0000.0001) %MON advcfl_wvel_max              =   8.4243393709883E-09
(PID.TID 0000.0001) %MON advcfl_W_hf_max              =   0.0000000000000E+00
(PID.TID 0000.0001) %MON pe_b_mean                    =   1.1403575077299E-05
(PID.TID 0000.0001) %MON ke_max                       =   1.0032415633440E-02
(PID.TID 0000.0001) %MON ke_mean                      =   1.6925261678641E-03
(PID.TID 0000.0001) %MON ke_vol                       =   6.8893493896486E+15
(PID.TID 0000.0001) %MON vort_r_min                   =  -1.0344578831323E-06
(PID.TID 0000.0001) %MON vort_r_max                   =   3.0643951518670E-06
(PID.TID 0000.0001) %MON vort_a_mean                  =   1.0600000000000E-04
(PID.TID 0000.0001) %MON vort_a_sd                    =   3.5587845340107E-06
(PID.TID 0000.0001) %MON vort_p_mean                  =   1.1652272308690E-04
(PID.TID 0000.0001) %MON vort_p_sd                    =   4.1787615811627E-05
(PID.TID 0000.0001) %MON surfExpan_theta_mean         =  -1.3133545609081E-19
(PID.TID 0000.0001) %MON surfExpan_salt_mean          =  -1.9699749979433E-19
(PID.TID 0000.0001) // =======================================================
(PID.TID 0000.0001) // End MONITOR dynamic field statistics
(PID.TID 0000.0001) // =======================================================
 cg2d: Sum(rhs),rhsMax =  -4.19223221719846E-03  1.87566123792854E-01
 cg2d: Sum(rhs),rhsMax =  -4.19294264209038E-03  1.87571242737465E-01
 cg2d: Sum(rhs),rhsMax =  -4.19365318034556E-03  1.87576362302134E-01
 cg2d: Sum(rhs),rhsMax =  -4.19436382832130E-03  1.87581482490235E-01
 cg2d: Sum(rhs),rhsMax =  -4.19507458234719E-03  1.87586603305127E-01
 cg2d: Sum(rhs),rhsMax =  -4.19578543879184E-03  1.87591724750165E-01
 cg2d: Sum(rhs),rhsMax =  -4.19649639483181E-03  1.87596846828713E-01
 cg2d: Sum(rhs),rhsMax =  -4.19720744625189E-03  1.87601969544116E-01
 cg2d: Sum(rhs),rhsMax =  -4.19791858994875E-03  1.87607092899726E-01
 cg2d: Sum(rhs),rhsMax =  -4.19862982237143E-03  1.87612216898902E-01
 cg2d: Sum(rhs),rhsMax =  -4.19934114064383E-03  1.87617341544973E-01
 cg2d: Sum(rhs),rhsMax =  -4.20005254042738E-03  1.87622466841287E-01
 cg2d: Sum(rhs),rhsMax =  -4.20076401875758E-03  1.87627592791183E-01
 cg2d: Sum(rhs),rhsMax =  -4.20147557227084E-03  1.87632719397996E-01
 cg2d: Sum(rhs),rhsMax =  -4.20218719714538E-03  1.87637846665059E-01
 cg2d: Sum(rhs),rhsMax =  -4.20289889013933E-03  1.87642974595696E-01
 cg2d: Sum(rhs),rhsMax =  -4.20361064762500E-03  1.87648103193239E-01
 cg2d: Sum(rhs),rhsMax =  -4.20432246597159E-03  1.87653232461011E-01
 cg2d: Sum(rhs),rhsMax =  -4.20503434236577E-03  1.87658362402333E-01
 cg2d: Sum(rhs),rhsMax =  -4.20574627283605E-03  1.87663493020515E-01
 cg2d: Sum(rhs),rhsMax =  -4.20645825394433E-03  1.87668624318884E-01
 cg2d: Sum(rhs),rhsMax =  -4.20717028241987E-03  1.87673756300738E-01
 cg2d: Sum(rhs),rhsMax =  -4.20788235483446E-03  1.87678888969397E-01
 cg2d: Sum(rhs),rhsMax =  -4.20859446778928E-03  1.87684022328160E-01
 cg2d: Sum(rhs),rhsMax =  -4.20930661741300E-03  1.87689156380329E-01
 cg2d: Sum(rhs),rhsMax =  -4.21001880091966E-03  1.87694291129201E-01
 cg2d: Sum(rhs),rhsMax =  -4.21073101445943E-03  1.87699426578080E-01
 cg2d: Sum(rhs),rhsMax =  -4.21144325432997E-03  1.87704562730251E-01
 cg2d: Sum(rhs),rhsMax =  -4.21215551759057E-03  1.87709699589009E-01
 cg2d: Sum(rhs),rhsMax =  -4.21286780097368E-03  1.87714837157640E-01
 cg2d: Sum(rhs),rhsMax =  -4.21358010030205E-03  1.87719975439419E-01
 cg2d: Sum(rhs),rhsMax =  -4.21429241248443E-03  1.87725114437640E-01
 cg2d: Sum(rhs),rhsMax =  -4.21500473413257E-03  1.87730254155573E-01
 cg2d: Sum(rhs),rhsMax =  -4.21571706222275E-03  1.87735394596491E-01
 cg2d: Sum(rhs),rhsMax =  -4.21642939249228E-03  1.87740535763673E-01
 cg2d: Sum(rhs),rhsMax =  -4.21714172211431E-03  1.87745677660375E-01
 cg2d: Sum(rhs),rhsMax =  -4.21785404789355E-03  1.87750820289871E-01
 cg2d: Sum(rhs),rhsMax =  -4.21856636553822E-03  1.87755963655423E-01
 cg2d: Sum(rhs),rhsMax =  -4.21927867232500E-03  1.87761107760286E-01
 cg2d: Sum(rhs),rhsMax =  -4.21999096459735E-03  1.87766252607723E-01
 cg2d: Sum(rhs),rhsMax =  -4.22070323863569E-03  1.87771398200973E-01
 cg2d: Sum(rhs),rhsMax =  -4.22141549170750E-03  1.87776544543293E-01
 cg2d: Sum(rhs),rhsMax =  -4.22212771984408E-03  1.87781691637932E-01
 cg2d: Sum(rhs),rhsMax =  -4.22283991985505E-03  1.87786839488127E-01
 cg2d: Sum(rhs),rhsMax =  -4.22355208804952E-03  1.87791988097121E-01
 cg2d: Sum(rhs),rhsMax =  -4.22426422160379E-03  1.87797137468153E-01
 cg2d: Sum(rhs),rhsMax =  -4.22497631647184E-03  1.87802287604450E-01
 cg2d: Sum(rhs),rhsMax =  -4.22568836938546E-03  1.87807438509247E-01
 cg2d: Sum(rhs),rhsMax =  -4.22640037744915E-03  1.87812590185766E-01
 cg2d: Sum(rhs),rhsMax =  -4.22711233668368E-03  1.87817742637240E-01
 cg2d: Sum(rhs),rhsMax =  -4.22782424370818E-03  1.87822895866883E-01
 cg2d: Sum(rhs),rhsMax =  -4.22853609543333E-03  1.87828049877912E-01
 cg2d: Sum(rhs),rhsMax =  -4.22924788855674E-03  1.87833204673540E-01
 cg2d: Sum(rhs),rhsMax =  -4.22995961875898E-03  1.87838360256980E-01
 cg2d: Sum(rhs),rhsMax =  -4.23067128397302E-03  1.87843516631446E-01
 cg2d: Sum(rhs),rhsMax =  -4.23138287953966E-03  1.87848673800132E-01
 cg2d: Sum(rhs),rhsMax =  -4.23209440298693E-03  1.87853831766245E-01
 cg2d: Sum(rhs),rhsMax =  -4.23280585048033E-03  1.87858990532980E-01
 cg2d: Sum(rhs),rhsMax =  -4.23351721871955E-03  1.87864150103534E-01
 cg2d: Sum(rhs),rhsMax =  -4.23422850474986E-03  1.87869310481100E-01
 cg2d: Sum(rhs),rhsMax =  -4.23493970458340E-03  1.87874471668859E-01
 cg2d: Sum(rhs),rhsMax =  -4.23565081469961E-03  1.87879633670004E-01
 cg2d: Sum(rhs),rhsMax =  -4.23636183229333E-03  1.87884796487713E-01
 cg2d: Sum(rhs),rhsMax =  -4.23707275331506E-03  1.87889960125166E-01
 cg2d: Sum(rhs),rhsMax =  -4.23778357559283E-03  1.87895124585535E-01
 cg2d: Sum(rhs),rhsMax =  -4.23849429414802E-03  1.87900289871994E-01
 cg2d: Sum(rhs),rhsMax =  -4.23920490682830E-03  1.87905455987713E-01
 cg2d: Sum(rhs),rhsMax =  -4.23991540940106E-03  1.87910622935852E-01
 cg2d: Sum(rhs),rhsMax =  -4.24062579916805E-03  1.87915790719579E-01
 cg2d: Sum(rhs),rhsMax =  -4.24133607214358E-03  1.87920959342047E-01
 cg2d: Sum(rhs),rhsMax =  -4.24204622539999E-03  1.87926128806414E-01
 cg2d: Sum(rhs),rhsMax =  -4.24275625531543E-03  1.87931299115832E-01
(PID.TID 0000.0001)      cg2d_init_res =   6.02932268829755E-04
(PID.TID 0000.0001)      cg2d_iters(min,last) =      -1      74
(PID.TID 0000.0001)      cg2d_last_res =   9.20181468088980E-08
(PID.TID 0000.0001) // =======================================================
(PID.TID 0000.0001) // Begin MONITOR dynamic field statistics
(PID.TID 0000.0001) // =======================================================
(PID.TID 0000.0001) %MON time_tsnumber                =                 11664
(PID.TID 0000.0001) %MON time_secondsf                =   1.3996800000000E+07
(PID.TID 0000.0001) %MON dynstat_eta_max              =   2.6543222261319E-01
(PID.TID 0000.0001) %MON dynstat_eta_min              =  -9.2099266030980E-02
(PID.TID 0000.0001) %MON dynstat_eta_mean             =   3.9854670484563E-06
(PID.TID 0000.0001) %MON dynstat_eta_sd               =   1.0592244749405E-01
(PID.TID 0000.0001) %MON dynstat_eta_del2             =   2.8833177362720E-05
(PID.TID 0000.0001) %MON dynstat_uvel_max             =   1.4189973448448E-01
(PID.TID 0000.0001) %MON dynstat_uvel_min             =  -9.9440966679256E-02
(PID.TID 0000.0001) %MON dynstat_uvel_mean            =   4.8497232428548E-08
(PID.TID 0000.0001) %MON dynstat_uvel_sd              =   4.3755339693434E-02
(PID.TID 0000.0001) %MON dynstat_uvel_del2            =   6.7374840381788E-05
(PID.TID 0000.0001) %MON dynstat_vvel_max             =   8.2952702125606E-02
(PID.TID 0000.0001) %MON dynstat_vvel_min             =  -1.1193368948628E-01
(PID.TID 0000.0001) %MON dynstat_vvel_mean            =   1.1711123537825E-07
(PID.TID 0000.0001) %MON dynstat_vvel_sd              =   3.9534667507340E-02
(PID.TID 0000.0001) %MON dynstat_vvel_del2            =   4.0989655609713E-05
(PID.TID 0000.0001) %MON dynstat_wvel_max             =   1.7407007263973E-08
(PID.TID 0000.0001) %MON dynstat_wvel_min             =  -7.3406723246444E-09
(PID.TID 0000.0001) %MON dynstat_wvel_mean            =  -4.4317650665309E-21
(PID.TID 0000.0001) %MON dynstat_wvel_sd              =   5.6533088640621E-09
(PID.TID 0000.0001) %MON dynstat_wvel_del2            =   1.9560749237271E-12
(PID.TID 0000.0001) %MON dynstat_theta_max            =   2.0000000000000E+01
(PID.TID 0000.0001) %MON dynstat_theta_min            =   2.0000000000000E+01
(PID.TID 0000.0001) %MON dynstat_theta_mean           =   2.0000000000000E+01
(PID.TID 0000.0001) %MON dynstat_theta_sd             =   3.8014036363165E-13
(PID.TID 0000.0001) %MON dynstat_theta_del2           =   0.0000000000000E+00
(PID.TID 0000.0001) %MON dynstat_salt_max             =   3.0000000000000E+01
(PID.TID 0000.0001) %MON dynstat_salt_min             =   3.0000000000000E+01
(PID.TID 0000.0001) %MON dynstat_salt_mean            =   2.9999999999999E+01
(PID.TID 0000.0001) %MON dynstat_salt_sd              =   5.5777604757167E-13
(PID.TID 0000.0001) %MON dynstat_salt_del2            =   0.0000000000000E+00
(PID.TID 0000.0001) %MON trAdv_CFL_u_max              =   8.5130353806518E-03
(PID.TID 0000.0001) %MON trAdv_CFL_v_max              =   6.7068500157820E-03
(PID.TID 0000.0001) %MON trAdv_CFL_w_max              =   4.5645794079002E-09
(PID.TID 0000.0001) %MON advcfl_uvel_max              =   8.5139840690689E-03
(PID.TID 0000.0001) %MON advcfl_vvel_max              =   6.7160213691771E-03
(PID.TID 0000.0001) %MON advcfl_wvel_max              =   8.3553634867072E-09
(PID.TID 0000.0001) %MON advcfl_W_hf_max              =   0.0000000000000E+00
(PID.TID 0000.0001) %MON pe_b_mean                    =   1.1502687164305E-05
(PID.TID 0000.0001) %MON ke_max                       =   1.0079627679204E-02
(PID.TID 0000.0001) %MON ke_mean                      =   1.7067864561429E-03
(PID.TID 0000.0001) %MON ke_vol                       =   6.8893493896486E+15
(PID.TID 0000.0001) %MON vort_r_min                   =  -1.0350523393556E-06
(PID.TID 0000.0001) %MON vort_r_max                   =   3.0708466519963E-06
(PID.TID 0000.0001) %MON vort_a_mean                  =   1.0600000000000E-04
(PID.TID 0000.0001) %MON vort_a_sd                    =   3.5589966948606E-06
(PID.TID 0000.0001) %MON vort_p_mean                  =   1.1652272308690E-04
(PID.TID 0000.0001) %MON vort_p_sd                    =   4.1787635249335E-05
(PID.TID 0000.0001) %MON surfExpan_theta_mean         =  -8.8667522706803E-20
(PID.TID 0000.0001) %MON surfExpan_salt_mean          =  -1.3299686290540E-19
(PID.TID 0000.0001) // =======================================================
(PID.TID 0000.0001) // End MONITOR dynamic field statistics
(PID.TID 0000.0001) // =======================================================
 cg2d: Sum(rhs),rhsMax =  -4.24346615885260E-03  1.87936470273449E-01
 cg2d: Sum(rhs),rhsMax =  -4.24417593230639E-03  1.87941642282412E-01
 cg2d: Sum(rhs),rhsMax =  -4.24488557249863E-03  1.87946815145859E-01
 cg2d: Sum(rhs),rhsMax =  -4.24559507604242E-03  1.87951988866930E-01
 cg2d: Sum(rhs),rhsMax =  -4.24630443989012E-03  1.87957163448762E-01
 cg2d: Sum(rhs),rhsMax =  -4.24701365991515E-03  1.87962338894487E-01
 cg2d: Sum(rhs),rhsMax =  -4.24772273327388E-03  1.87967515207230E-01
 cg2d: Sum(rhs),rhsMax =  -4.24843165643753E-03  1.87972692390119E-01
 cg2d: Sum(rhs),rhsMax =  -4.24914042624867E-03  1.87977870446275E-01
 cg2d: Sum(rhs),rhsMax =  -4.24984903917384E-03  1.87983049378812E-01
 cg2d: Sum(rhs),rhsMax =  -4.25055749149128E-03  1.87988229190855E-01
 cg2d: Sum(rhs),rhsMax =  -4.25126578062708E-03  1.87993409885505E-01
 cg2d: Sum(rhs),rhsMax =  -4.25197390297012E-03  1.87998591465879E-01
 cg2d: Sum(rhs),rhsMax =  -4.25268185435944E-03  1.88003773935074E-01
 cg2d: Sum(rhs),rhsMax =  -4.25338963245893E-03  1.88008957296195E-01
 cg2d: Sum(rhs),rhsMax =  -4.25409723397002E-03  1.88014141552338E-01
 cg2d: Sum(rhs),rhsMax =  -4.25480465487457E-03  1.88019326706600E-01
 cg2d: Sum(rhs),rhsMax =  -4.25551189256209E-03  1.88024512762071E-01
 cg2d: Sum(rhs),rhsMax =  -4.25621894288376E-03  1.88029699721838E-01
 cg2d: Sum(rhs),rhsMax =  -4.25692580289599E-03  1.88034887588988E-01
 cg2d: Sum(rhs),rhsMax =  -4.25763246964231E-03  1.88040076366598E-01
 cg2d: Sum(rhs),rhsMax =  -4.25833893891052E-03  1.88045266057748E-01
 cg2d: Sum(rhs),rhsMax =  -4.25904520795517E-03  1.88050456665509E-01
 cg2d: Sum(rhs),rhsMax =  -4.25975127376457E-03  1.88055648192951E-01
 cg2d: Sum(rhs),rhsMax =  -4.26045713234242E-03  1.88060840643144E-01
 cg2d: Sum(rhs),rhsMax =  -4.26116278067668E-03  1.88066034019151E-01
 cg2d: Sum(rhs),rhsMax =  -4.26186821538051E-03  1.88071228324031E-01
 cg2d: Sum(rhs),rhsMax =  -4.26257343331842E-03  1.88076423560841E-01
 cg2d: Sum(rhs),rhsMax =  -4.26327843055382E-03  1.88081619732630E-01
 cg2d: Sum(rhs),rhsMax =  -4.26398320462856E-03  1.88086816842457E-01
 cg2d: Sum(rhs),rhsMax =  -4.26468775150606E-03  1.88092014893356E-01
 cg2d: Sum(rhs),rhsMax =  -4.26539206841434E-03  1.88097213888377E-01
 cg2d: Sum(rhs),rhsMax =  -4.26609615170919E-03  1.88102413830561E-01
 cg2d: Sum(rhs),rhsMax =  -4.26679999812857E-03  1.88107614722934E-01
 cg2d: Sum(rhs),rhsMax =  -4.26750360426436E-03  1.88112816568540E-01
 cg2d: Sum(rhs),rhsMax =  -4.26820696705918E-03  1.88118019370398E-01
 cg2d: Sum(rhs),rhsMax =  -4.26891008321200E-03  1.88123223131541E-01
 cg2d: Sum(rhs),rhsMax =  -4.26961294928543E-03  1.88128427854980E-01
 cg2d: Sum(rhs),rhsMax =  -4.27031556202152E-03  1.88133633543740E-01
 cg2d: Sum(rhs),rhsMax =  -4.27101791800494E-03  1.88138840200838E-01
 cg2d: Sum(rhs),rhsMax =  -4.27172001408165E-03  1.88144047829275E-01
 cg2d: Sum(rhs),rhsMax =  -4.27242184698832E-03  1.88149256432066E-01
 cg2d: Sum(rhs),rhsMax =  -4.27312341340947E-03  1.88154466012216E-01
 cg2d: Sum(rhs),rhsMax =  -4.27382470988941E-03  1.88159676572715E-01
 cg2d: Sum(rhs),rhsMax =  -4.27452573319610E-03  1.88164888116570E-01
 cg2d: Sum(rhs),rhsMax =  -4.27522648007043E-03  1.88170100646771E-01
 cg2d: Sum(rhs),rhsMax =  -4.27592694741956E-03  1.88175314166304E-01
 cg2d: Sum(rhs),rhsMax =  -4.27662713172046E-03  1.88180528678159E-01
 cg2d: Sum(rhs),rhsMax =  -4.27732702942001E-03  1.88185744185318E-01
 cg2d: Sum(rhs),rhsMax =  -4.27802663841430E-03  1.88190960690751E-01
 cg2d: Sum(rhs),rhsMax =  -4.27872595410123E-03  1.88196178197444E-01
 cg2d: Sum(rhs),rhsMax =  -4.27942497402906E-03  1.88201396708365E-01
 cg2d: Sum(rhs),rhsMax =  -4.28012369442063E-03  1.88206616226479E-01
 cg2d: Sum(rhs),rhsMax =  -4.28082211202906E-03  1.88211836754755E-01
 cg2d: Sum(rhs),rhsMax =  -4.28152022421049E-03  1.88217058296150E-01
 cg2d: Sum(rhs),rhsMax =  -4.28221802678776E-03  1.88222280853618E-01
 cg2d: Sum(rhs),rhsMax =  -4.28291551718769E-03  1.88227504430121E-01
 cg2d: Sum(rhs),rhsMax =  -4.28361269209975E-03  1.88232729028601E-01
 cg2d: Sum(rhs),rhsMax =  -4.28430954805016E-03  1.88237954652007E-01
 cg2d: Sum(rhs),rhsMax =  -4.28500608167230E-03  1.88243181303285E-01
 cg2d: Sum(rhs),rhsMax =  -4.28570228974628E-03  1.88248408985364E-01
 cg2d: Sum(rhs),rhsMax =  -4.28639816954851E-03  1.88253637701189E-01
 cg2d: Sum(rhs),rhsMax =  -4.28709371740030E-03  1.88258867453685E-01
 cg2d: Sum(rhs),rhsMax =  -4.28778893012761E-03  1.88264098245781E-01
 cg2d: Sum(rhs),rhsMax =  -4.28848380445875E-03  1.88269330080406E-01
 cg2d: Sum(rhs),rhsMax =  -4.28917833720035E-03  1.88274562960476E-01
 cg2d: Sum(rhs),rhsMax =  -4.28987252471877E-03  1.88279796888904E-01
 cg2d: Sum(rhs),rhsMax =  -4.29056636451391E-03  1.88285031868610E-01
 cg2d: Sum(rhs),rhsMax =  -4.29125985343097E-03  1.88290267902500E-01
 cg2d: Sum(rhs),rhsMax =  -4.29195298753867E-03  1.88295504993479E-01
 cg2d: Sum(rhs),rhsMax =  -4.29264576403671E-03  1.88300743144453E-01
 cg2d: Sum(rhs),rhsMax =  -4.29333817917241E-03  1.88305982358317E-01
(PID.TID 0000.0001)      cg2d_init_res =   5.98007212634142E-04
(PID.TID 0000.0001)      cg2d_iters(min,last) =      -1      74
(PID.TID 0000.0001)      cg2d_last_res =   9.32087825807362E-08
(PID.TID 0000.0001) // =======================================================
(PID.TID 0000.0001) // Begin MONITOR dynamic field statistics
(PID.TID 0000.0001) // =======================================================
(PID.TID 0000.0001) %MON time_tsnumber                =                 11736
(PID.TID 0000.0001) %MON time_secondsf                =   1.4083200000000E+07
(PID.TID 0000.0001) %MON dynstat_eta_max              =   2.6675556940554E-01
(PID.TID 0000.0001) %MON dynstat_eta_min              =  -9.2396542190131E-02
(PID.TID 0000.0001) %MON dynstat_eta_mean             =   4.0409987345365E-06
(PID.TID 0000.0001) %MON dynstat_eta_sd               =   1.0637884978677E-01
(PID.TID 0000.0001) %MON dynstat_eta_del2             =   2.8927655885871E-05
(PID.TID 0000.0001) %MON dynstat_uvel_max             =   1.4222856200227E-01
(PID.TID 0000.0001) %MON dynstat_uvel_min             =  -1.0003961544478E-01
(PID.TID 0000.0001) %MON dynstat_uvel_mean            =   4.4485357270215E-08
(PID.TID 0000.0001) %MON dynstat_uvel_sd              =   4.3932135974765E-02
(PID.TID 0000.0001) %MON dynstat_uvel_del2            =   6.7492376455523E-05
(PID.TID 0000.0001) %MON dynstat_vvel_max             =   8.3378178386025E-02
(PID.TID 0000.0001) %MON dynstat_vvel_min             =  -1.1245046477222E-01
(PID.TID 0000.0001) %MON dynstat_vvel_mean            =   1.0895450956482E-07
(PID.TID 0000.0001) %MON dynstat_vvel_sd              =   3.9706497771971E-02
(PID.TID 0000.0001) %MON dynstat_vvel_del2            =   4.0959897867331E-05
(PID.TID 0000.0001) %MON dynstat_wvel_max             =   1.7253018146148E-08
(PID.TID 0000.0001) %MON dynstat_wvel_min             =  -7.2806688270066E-09
(PID.TID 0000.0001) %MON dynstat_wvel_mean            =   1.0524289690592E-20
(PID.TID 0000.0001) %MON dynstat_wvel_sd              =   5.6330835913865E-09
(PID.TID 0000.0001) %MON dynstat_wvel_del2            =   1.9442912191279E-12
(PID.TID 0000.0001) %MON dynstat_theta_max            =   2.0000000000000E+01
(PID.TID 0000.0001) %MON dynstat_theta_min            =   2.0000000000000E+01
(PID.TID 0000.0001) %MON dynstat_theta_mean           =   2.0000000000000E+01
(PID.TID 0000.0001) %MON dynstat_theta_sd             =   3.8014036363165E-13
(PID.TID 0000.0001) %MON dynstat_theta_del2           =   0.0000000000000E+00
(PID.TID 0000.0001) %MON dynstat_salt_max             =   3.0000000000000E+01
(PID.TID 0000.0001) %MON dynstat_salt_min             =   3.0000000000000E+01
(PID.TID 0000.0001) %MON dynstat_salt_mean            =   2.9999999999999E+01
(PID.TID 0000.0001) %MON dynstat_salt_sd              =   5.5777604757167E-13
(PID.TID 0000.0001) %MON dynstat_salt_del2            =   0.0000000000000E+00
(PID.TID 0000.0001) %MON trAdv_CFL_u_max              =   8.5327670364202E-03
(PID.TID 0000.0001) %MON trAdv_CFL_v_max              =   6.7378082008735E-03
(PID.TID 0000.0001) %MON trAdv_CFL_w_max              =   4.5352879576028E-09
(PID.TID 0000.0001) %MON advcfl_uvel_max              =   8.5337137201364E-03
(PID.TID 0000.0001) %MON advcfl_vvel_max              =   6.7470278863330E-03
(PID.TID 0000.0001) %MON advcfl_wvel_max              =   8.2814487101510E-09
(PID.TID 0000.0001) %MON advcfl_W_hf_max              =   0.0000000000000E+00
(PID.TID 0000.0001) %MON pe_b_mean                    =   1.1602027073997E-05
(PID.TID 0000.0001) %MON ke_max                       =   1.0126358651886E-02
(PID.TID 0000.0001) %MON ke_mean                      =   1.7210781534739E-03
(PID.TID 0000.0001) %MON ke_vol                       =   6.8893493896486E+15
(PID.TID 0000.0001) %MON vort_r_min                   =  -1.0348993316899E-06
(PID.TID 0000.0001) %MON vort_r_max                   =   3.0772396316074E-06
(PID.TID 0000.0001) %MON vort_a_mean                  =   1.0600000000000E-04
(PID.TID 0000.0001) %MON vort_a_sd                    =   3.5592067117688E-06
(PID.TID 0000.0001) %MON vort_p_mean                  =   1.1652272308690E-04
(PID.TID 0000.0001) %MON vort_p_sd                    =   4.1787650620629E-05
(PID.TID 0000.0001) %MON surfExpan_theta_mean         =   2.1050886466077E-19
(PID.TID 0000.0001) %MON surfExpan_salt_mean          =   3.1575887583636E-19
(PID.TID 0000.0001) // =======================================================
(PID.TID 0000.0001) // End MONITOR dynamic field statistics
(PID.TID 0000.0001) // =======================================================
 cg2d: Sum(rhs),rhsMax =  -4.29403023020958E-03  1.88311222637961E-01
 cg2d: Sum(rhs),rhsMax =  -4.29472191396916E-03  1.88316463986290E-01
 cg2d: Sum(rhs),rhsMax =  -4.29541322717058E-03  1.88321706406174E-01
 cg2d: Sum(rhs),rhsMax =  -4.29610416666155E-03  1.88326949900507E-01
 cg2d: Sum(rhs),rhsMax =  -4.29679472878649E-03  1.88332194472169E-01
 cg2d: Sum(rhs),rhsMax =  -4.29748491107547E-03  1.88337440124028E-01
 cg2d: Sum(rhs),rhsMax =  -4.29817470982598E-03  1.88342686858962E-01
 cg2d: Sum(rhs),rhsMax =  -4.29886412212602E-03  1.88347934679838E-01
 cg2d: Sum(rhs),rhsMax =  -4.29955314481530E-03  1.88353183589524E-01
 cg2d: Sum(rhs),rhsMax =  -4.30024177425451E-03  1.88358433590876E-01
 cg2d: Sum(rhs),rhsMax =  -4.30093000723749E-03  1.88363684686756E-01
 cg2d: Sum(rhs),rhsMax =  -4.30161784118401E-03  1.88368936880011E-01
 cg2d: Sum(rhs),rhsMax =  -4.30230527220304E-03  1.88374190173494E-01
 cg2d: Sum(rhs),rhsMax =  -4.30299229772629E-03  1.88379444570054E-01
 cg2d: Sum(rhs),rhsMax =  -4.30367891463811E-03  1.88384700072528E-01
 cg2d: Sum(rhs),rhsMax =  -4.30436511938119E-03  1.88389956683757E-01
 cg2d: Sum(rhs),rhsMax =  -4.30505090846381E-03  1.88395214406579E-01
 cg2d: Sum(rhs),rhsMax =  -4.30573627947667E-03  1.88400473243815E-01
 cg2d: Sum(rhs),rhsMax =  -4.30642122899172E-03  1.88405733198303E-01
 cg2d: Sum(rhs),rhsMax =  -4.30710575405295E-03  1.88410994272859E-01
 cg2d: Sum(rhs),rhsMax =  -4.30778985087532E-03  1.88416256470306E-01
 cg2d: Sum(rhs),rhsMax =  -4.30847351663266E-03  1.88421519793454E-01
 cg2d: Sum(rhs),rhsMax =  -4.30915674821515E-03  1.88426784245123E-01
 cg2d: Sum(rhs),rhsMax =  -4.30983954269592E-03  1.88432049828116E-01
 cg2d: Sum(rhs),rhsMax =  -4.31052189643883E-03  1.88437316545235E-01
 cg2d: Sum(rhs),rhsMax =  -4.31120380636601E-03  1.88442584399285E-01
 cg2d: Sum(rhs),rhsMax =  -4.31188526994931E-03  1.88447853393056E-01
 cg2d: Sum(rhs),rhsMax =  -4.31256628347039E-03  1.88453123529351E-01
 cg2d: Sum(rhs),rhsMax =  -4.31324684396124E-03  1.88458394810951E-01
 cg2d: Sum(rhs),rhsMax =  -4.31392694829900E-03  1.88463667240640E-01
 cg2d: Sum(rhs),rhsMax =  -4.31460659355174E-03  1.88468940821203E-01
 cg2d: Sum(rhs),rhsMax =  -4.31528577665230E-03  1.88474215555417E-01
 cg2d: Sum(rhs),rhsMax =  -4.31596449397209E-03  1.88479491446051E-01
 cg2d: Sum(rhs),rhsMax =  -4.31664274271342E-03  1.88484768495882E-01
 cg2d: Sum(rhs),rhsMax =  -4.31732051962995E-03  1.88490046707665E-01
 cg2d: Sum(rhs),rhsMax =  -4.31799782212415E-03  1.88495326084172E-01
 cg2d: Sum(rhs),rhsMax =  -4.31867464671184E-03  1.88500606628157E-01
 cg2d: Sum(rhs),rhsMax =  -4.31935099016698E-03  1.88505888342370E-01
 cg2d: Sum(rhs),rhsMax =  -4.32002684953851E-03  1.88511171229567E-01
 cg2d: Sum(rhs),rhsMax =  -4.32070222189815E-03  1.88516455292494E-01
 cg2d: Sum(rhs),rhsMax =  -4.32137710390800E-03  1.88521740533887E-01
 cg2d: Sum(rhs),rhsMax =  -4.32205149247005E-03  1.88527026956492E-01
 cg2d: Sum(rhs),rhsMax =  -4.32272538440739E-03  1.88532314563037E-01
 cg2d: Sum(rhs),rhsMax =  -4.32339877735027E-03  1.88537603356257E-01
 cg2d: Sum(rhs),rhsMax =  -4.32407166740672E-03  1.88542893338875E-01
 cg2d: Sum(rhs),rhsMax =  -4.32474405220217E-03  1.88548184513615E-01
 cg2d: Sum(rhs),rhsMax =  -4.32541592793101E-03  1.88553476883202E-01
 cg2d: Sum(rhs),rhsMax =  -4.32608729233312E-03  1.88558770450345E-01
 cg2d: Sum(rhs),rhsMax =  -4.32675814178254E-03  1.88564065217754E-01
 cg2d: Sum(rhs),rhsMax =  -4.32742847384429E-03  1.88569361188136E-01
 cg2d: Sum(rhs),rhsMax =  -4.32809828465023E-03  1.88574658364194E-01
 cg2d: Sum(rhs),rhsMax =  -4.32876757147617E-03  1.88579956748630E-01
 cg2d: Sum(rhs),rhsMax =  -4.32943633141948E-03  1.88585256344143E-01
 cg2d: Sum(rhs),rhsMax =  -4.33010456168415E-03  1.88590557153413E-01
 cg2d: Sum(rhs),rhsMax =  -4.33077225918081E-03  1.88595859179134E-01
 cg2d: Sum(rhs),rhsMax =  -4.33143942063618E-03  1.88601162423989E-01
 cg2d: Sum(rhs),rhsMax =  -4.33210604281384E-03  1.88606466890659E-01
 cg2d: Sum(rhs),rhsMax =  -4.33277212287659E-03  1.88611772581815E-01
 cg2d: Sum(rhs),rhsMax =  -4.33343765785452E-03  1.88617079500130E-01
 cg2d: Sum(rhs),rhsMax =  -4.33410264501102E-03  1.88622387648276E-01
 cg2d: Sum(rhs),rhsMax =  -4.33476708112335E-03  1.88627697028905E-01
 cg2d: Sum(rhs),rhsMax =  -4.33543096333039E-03  1.88633007644691E-01
 cg2d: Sum(rhs),rhsMax =  -4.33609428861293E-03  1.88638319498282E-01
 cg2d: Sum(rhs),rhsMax =  -4.33675705335093E-03  1.88643632592323E-01
 cg2d: Sum(rhs),rhsMax =  -4.33741925550872E-03  1.88648946929474E-01
 cg2d: Sum(rhs),rhsMax =  -4.33808089157986E-03  1.88654262512372E-01
 cg2d: Sum(rhs),rhsMax =  -4.33874195839529E-03  1.88659579343653E-01
 cg2d: Sum(rhs),rhsMax =  -4.33940245393033E-03  1.88664897425961E-01
 cg2d: Sum(rhs),rhsMax =  -4.34006237437302E-03  1.88670216761920E-01
 cg2d: Sum(rhs),rhsMax =  -4.34072171696420E-03  1.88675537354160E-01
 cg2d: Sum(rhs),rhsMax =  -4.34138047861845E-03  1.88680859205304E-01
 cg2d: Sum(rhs),rhsMax =  -4.34203865642464E-03  1.88686182317973E-01
(PID.TID 0000.0001)      cg2d_init_res =   5.93290147911285E-04
(PID.TID 0000.0001)      cg2d_iters(min,last) =      -1      74
(PID.TID 0000.0001)      cg2d_last_res =   9.38103875556254E-08
(PID.TID 0000.0001) // =======================================================
(PID.TID 0000.0001) // Begin MONITOR dynamic field statistics
(PID.TID 0000.0001) // =======================================================
(PID.TID 0000.0001) %MON time_tsnumber                =                 11808
(PID.TID 0000.0001) %MON time_secondsf                =   1.4169600000000E+07
(PID.TID 0000.0001) %MON dynstat_eta_max              =   2.6807557480897E-01
(PID.TID 0000.0001) %MON dynstat_eta_min              =  -9.2703436947184E-02
(PID.TID 0000.0001) %MON dynstat_eta_mean             =   4.0950501014801E-06
(PID.TID 0000.0001) %MON dynstat_eta_sd               =   1.0683461085921E-01
(PID.TID 0000.0001) %MON dynstat_eta_del2             =   2.9020916984685E-05
(PID.TID 0000.0001) %MON dynstat_uvel_max             =   1.4255363535245E-01
(PID.TID 0000.0001) %MON dynstat_uvel_min             =  -1.0061690110462E-01
(PID.TID 0000.0001) %MON dynstat_uvel_mean            =   3.8571514771271E-08
(PID.TID 0000.0001) %MON dynstat_uvel_sd              =   4.4106230551622E-02
(PID.TID 0000.0001) %MON dynstat_uvel_del2            =   6.7607606226831E-05
(PID.TID 0000.0001) %MON dynstat_vvel_max             =   8.3804030069313E-02
(PID.TID 0000.0001) %MON dynstat_vvel_min             =  -1.1297631947277E-01
(PID.TID 0000.0001) %MON dynstat_vvel_mean            =   1.0158990275558E-07
(PID.TID 0000.0001) %MON dynstat_vvel_sd              =   3.9880638808743E-02
(PID.TID 0000.0001) %MON dynstat_vvel_del2            =   4.0928240892701E-05
(PID.TID 0000.0001) %MON dynstat_wvel_max             =   1.7123284018598E-08
(PID.TID 0000.0001) %MON dynstat_wvel_min             =  -7.1687482832931E-09
(PID.TID 0000.0001) %MON dynstat_wvel_mean            =  -4.8998344936990E-21
(PID.TID 0000.0001) %MON dynstat_wvel_sd              =   5.6131305666962E-09
(PID.TID 0000.0001) %MON dynstat_wvel_del2            =   1.9330476856618E-12
(PID.TID 0000.0001) %MON dynstat_theta_max            =   2.0000000000000E+01
(PID.TID 0000.0001) %MON dynstat_theta_min            =   2.0000000000000E+01
(PID.TID 0000.0001) %MON dynstat_theta_mean           =   2.0000000000000E+01
(PID.TID 0000.0001) %MON dynstat_theta_sd             =   3.8014036363165E-13
(PID.TID 0000.0001) %MON dynstat_theta_del2           =   0.0000000000000E+00
(PID.TID 0000.0001) %MON dynstat_salt_max             =   3.0000000000000E+01
(PID.TID 0000.0001) %MON dynstat_salt_min             =   3.0000000000000E+01
(PID.TID 0000.0001) %MON dynstat_salt_mean            =   2.9999999999999E+01
(PID.TID 0000.0001) %MON dynstat_salt_sd              =   5.5777604757167E-13
(PID.TID 0000.0001) %MON dynstat_salt_del2            =   0.0000000000000E+00
(PID.TID 0000.0001) %MON trAdv_CFL_u_max              =   8.5522726007274E-03
(PID.TID 0000.0001) %MON trAdv_CFL_v_max              =   6.7693112572393E-03
(PID.TID 0000.0001) %MON trAdv_CFL_w_max              =   4.5012952349505E-09
(PID.TID 0000.0001) %MON advcfl_uvel_max              =   8.5532181211473E-03
(PID.TID 0000.0001) %MON advcfl_vvel_max              =   6.7785791683662E-03
(PID.TID 0000.0001) %MON advcfl_wvel_max              =   8.2191763289273E-09
(PID.TID 0000.0001) %MON advcfl_W_hf_max              =   0.0000000000000E+00
(PID.TID 0000.0001) %MON pe_b_mean                    =   1.1701653635877E-05
(PID.TID 0000.0001) %MON ke_max                       =   1.0172740800599E-02
(PID.TID 0000.0001) %MON ke_mean                      =   1.7354029991482E-03
(PID.TID 0000.0001) %MON ke_vol                       =   6.8893493896486E+15
(PID.TID 0000.0001) %MON vort_r_min                   =  -1.0340100010707E-06
(PID.TID 0000.0001) %MON vort_r_max                   =   3.0835956232698E-06
(PID.TID 0000.0001) %MON vort_a_mean                  =   1.0600000000000E-04
(PID.TID 0000.0001) %MON vort_a_sd                    =   3.5594148528510E-06
(PID.TID 0000.0001) %MON vort_p_mean                  =   1.1652272308690E-04
(PID.TID 0000.0001) %MON vort_p_sd                    =   4.1787662464197E-05
(PID.TID 0000.0001) %MON surfExpan_theta_mean         =  -9.7982264277461E-20
(PID.TID 0000.0001) %MON surfExpan_salt_mean          =  -1.4697939655485E-19
(PID.TID 0000.0001) // =======================================================
(PID.TID 0000.0001) // End MONITOR dynamic field statistics
(PID.TID 0000.0001) // =======================================================
 cg2d: Sum(rhs),rhsMax =  -4.34269624800751E-03  1.88691506694782E-01
 cg2d: Sum(rhs),rhsMax =  -4.34335324956052E-03  1.88696832338337E-01
 cg2d: Sum(rhs),rhsMax =  -4.34400965860633E-03  1.88702159251252E-01
 cg2d: Sum(rhs),rhsMax =  -4.34466547237513E-03  1.88707487436127E-01
 cg2d: Sum(rhs),rhsMax =  -4.34532068777416E-03  1.88712816895564E-01
 cg2d: Sum(rhs),rhsMax =  -4.34597530183382E-03  1.88718147632151E-01
 cg2d: Sum(rhs),rhsMax =  -4.34662931179709E-03  1.88723479648487E-01
 cg2d: Sum(rhs),rhsMax =  -4.34728271429981E-03  1.88728812947153E-01
 cg2d: Sum(rhs),rhsMax =  -4.34793550721347E-03  1.88734147530733E-01
 cg2d: Sum(rhs),rhsMax =  -4.34858768712156E-03  1.88739483401810E-01
 cg2d: Sum(rhs),rhsMax =  -4.34923925097751E-03  1.88744820562954E-01
 cg2d: Sum(rhs),rhsMax =  -4.34989019631126E-03  1.88750159016735E-01
 cg2d: Sum(rhs),rhsMax =  -4.35054051991682E-03  1.88755498765728E-01
 cg2d: Sum(rhs),rhsMax =  -4.35119021903972E-03  1.88760839812480E-01
 cg2d: Sum(rhs),rhsMax =  -4.35183929094756E-03  1.88766182159567E-01
 cg2d: Sum(rhs),rhsMax =  -4.35248773258760E-03  1.88771525809527E-01
 cg2d: Sum(rhs),rhsMax =  -4.35313554158904E-03  1.88776870764923E-01
 cg2d: Sum(rhs),rhsMax =  -4.35378271440102E-03  1.88782217028294E-01
 cg2d: Sum(rhs),rhsMax =  -4.35442924852723E-03  1.88787564602183E-01
 cg2d: Sum(rhs),rhsMax =  -4.35507514109630E-03  1.88792913489130E-01
 cg2d: Sum(rhs),rhsMax =  -4.35572038876052E-03  1.88798263691665E-01
 cg2d: Sum(rhs),rhsMax =  -4.35636498988589E-03  1.88803615212320E-01
 cg2d: Sum(rhs),rhsMax =  -4.35700894086822E-03  1.88808968053618E-01
 cg2d: Sum(rhs),rhsMax =  -4.35765223852163E-03  1.88814322218088E-01
 cg2d: Sum(rhs),rhsMax =  -4.35829488047801E-03  1.88819677708238E-01
 cg2d: Sum(rhs),rhsMax =  -4.35893686376173E-03  1.88825034526584E-01
 cg2d: Sum(rhs),rhsMax =  -4.35957818613070E-03  1.88830392675636E-01
 cg2d: Sum(rhs),rhsMax =  -4.36021884416665E-03  1.88835752157896E-01
 cg2d: Sum(rhs),rhsMax =  -4.36085883520322E-03  1.88841112975872E-01
 cg2d: Sum(rhs),rhsMax =  -4.36149815680891E-03  1.88846475132050E-01
 cg2d: Sum(rhs),rhsMax =  -4.36213680546630E-03  1.88851838628932E-01
 cg2d: Sum(rhs),rhsMax =  -4.36277477918630E-03  1.88857203468995E-01
 cg2d: Sum(rhs),rhsMax =  -4.36341207477444E-03  1.88862569654738E-01
 cg2d: Sum(rhs),rhsMax =  -4.36404868942419E-03  1.88867937188626E-01
 cg2d: Sum(rhs),rhsMax =  -4.36468462076480E-03  1.88873306073144E-01
 cg2d: Sum(rhs),rhsMax =  -4.36531986569100E-03  1.88878676310762E-01
 cg2d: Sum(rhs),rhsMax =  -4.36595442162495E-03  1.88884047903941E-01
 cg2d: Sum(rhs),rhsMax =  -4.36658828539664E-03  1.88889420855150E-01
 cg2d: Sum(rhs),rhsMax =  -4.36722145490238E-03  1.88894795166846E-01
 cg2d: Sum(rhs),rhsMax =  -4.36785392712957E-03  1.88900170841487E-01
 cg2d: Sum(rhs),rhsMax =  -4.36848569948749E-03  1.88905547881518E-01
 cg2d: Sum(rhs),rhsMax =  -4.36911676865471E-03  1.88910926289391E-01
 cg2d: Sum(rhs),rhsMax =  -4.36974713286712E-03  1.88916306067544E-01
 cg2d: Sum(rhs),rhsMax =  -4.37037678858420E-03  1.88921687218417E-01
 cg2d: Sum(rhs),rhsMax =  -4.37100573378224E-03  1.88927069744439E-01
 cg2d: Sum(rhs),rhsMax =  -4.37163396543591E-03  1.88932453648047E-01
 cg2d: Sum(rhs),rhsMax =  -4.37226148090622E-03  1.88937838931663E-01
 cg2d: Sum(rhs),rhsMax =  -4.37288827799762E-03  1.88943225597703E-01
 cg2d: Sum(rhs),rhsMax =  -4.37351435275347E-03  1.88948613648591E-01
 cg2d: Sum(rhs),rhsMax =  -4.37413970359021E-03  1.88954003086740E-01
 cg2d: Sum(rhs),rhsMax =  -4.37476432764723E-03  1.88959393914553E-01
 cg2d: Sum(rhs),rhsMax =  -4.37538822220638E-03  1.88964786134435E-01
 cg2d: Sum(rhs),rhsMax =  -4.37601138450439E-03  1.88970179748789E-01
 cg2d: Sum(rhs),rhsMax =  -4.37663381232296E-03  1.88975574760009E-01
 cg2d: Sum(rhs),rhsMax =  -4.37725550256699E-03  1.88980971170484E-01
 cg2d: Sum(rhs),rhsMax =  -4.37787645292070E-03  1.88986368982608E-01
 cg2d: Sum(rhs),rhsMax =  -4.37849666029960E-03  1.88991768198757E-01
 cg2d: Sum(rhs),rhsMax =  -4.37911612260534E-03  1.88997168821311E-01
 cg2d: Sum(rhs),rhsMax =  -4.37973483745167E-03  1.89002570852646E-01
 cg2d: Sum(rhs),rhsMax =  -4.38035280126851E-03  1.89007974295132E-01
 cg2d: Sum(rhs),rhsMax =  -4.38097001226339E-03  1.89013379151131E-01
 cg2d: Sum(rhs),rhsMax =  -4.38158646746190E-03  1.89018785423015E-01
 cg2d: Sum(rhs),rhsMax =  -4.38220216440321E-03  1.89024193113128E-01
 cg2d: Sum(rhs),rhsMax =  -4.38281710066196E-03  1.89029602223832E-01
 cg2d: Sum(rhs),rhsMax =  -4.38343127385301E-03  1.89035012757469E-01
 cg2d: Sum(rhs),rhsMax =  -4.38404468059864E-03  1.89040424716393E-01
 cg2d: Sum(rhs),rhsMax =  -4.38465731936831E-03  1.89045838102933E-01
 cg2d: Sum(rhs),rhsMax =  -4.38526918695384E-03  1.89051252919434E-01
 cg2d: Sum(rhs),rhsMax =  -4.38588028086962E-03  1.89056669168223E-01
 cg2d: Sum(rhs),rhsMax =  -4.38649059880786E-03  1.89062086851625E-01
 cg2d: Sum(rhs),rhsMax =  -4.38710013839691E-03  1.89067505971972E-01
 cg2d: Sum(rhs),rhsMax =  -4.38770889667214E-03  1.89072926531571E-01
(PID.TID 0000.0001)      cg2d_init_res =   5.88654150688515E-04
(PID.TID 0000.0001)      cg2d_iters(min,last) =      -1      74
(PID.TID 0000.0001)      cg2d_last_res =   9.37529036034459E-08
(PID.TID 0000.0001) // =======================================================
(PID.TID 0000.0001) // Begin MONITOR dynamic field statistics
(PID.TID 0000.0001) // =======================================================
(PID.TID 0000.0001) %MON time_tsnumber                =                 11880
(PID.TID 0000.0001) %MON time_secondsf                =   1.4256000000000E+07
(PID.TID 0000.0001) %MON dynstat_eta_max              =   2.6939231247956E-01
(PID.TID 0000.0001) %MON dynstat_eta_min              =  -9.3019238687154E-02
(PID.TID 0000.0001) %MON dynstat_eta_mean             =   4.1465527417768E-06
(PID.TID 0000.0001) %MON dynstat_eta_sd               =   1.0728998399845E-01
(PID.TID 0000.0001) %MON dynstat_eta_del2             =   2.9112961668764E-05
(PID.TID 0000.0001) %MON dynstat_uvel_max             =   1.4287598321403E-01
(PID.TID 0000.0001) %MON dynstat_uvel_min             =  -1.0117186142075E-01
(PID.TID 0000.0001) %MON dynstat_uvel_mean            =   3.0981143338852E-08
(PID.TID 0000.0001) %MON dynstat_uvel_sd              =   4.4277848735360E-02
(PID.TID 0000.0001) %MON dynstat_uvel_del2            =   6.7720520814129E-05
(PID.TID 0000.0001) %MON dynstat_vvel_max             =   8.4232196462747E-02
(PID.TID 0000.0001) %MON dynstat_vvel_min             =  -1.1351018199410E-01
(PID.TID 0000.0001) %MON dynstat_vvel_mean            =   9.5245791263066E-08
(PID.TID 0000.0001) %MON dynstat_vvel_sd              =   4.0056880027413E-02
(PID.TID 0000.0001) %MON dynstat_vvel_del2            =   4.0895199762488E-05
(PID.TID 0000.0001) %MON dynstat_wvel_max             =   1.6965704624308E-08
(PID.TID 0000.0001) %MON dynstat_wvel_min             =  -7.0270455320133E-09
(PID.TID 0000.0001) %MON dynstat_wvel_mean            =   1.2420529553007E-21
(PID.TID 0000.0001) %MON dynstat_wvel_sd              =   5.5938112822524E-09
(PID.TID 0000.0001) %MON dynstat_wvel_del2            =   1.9220889601280E-12
(PID.TID 0000.0001) %MON dynstat_theta_max            =   2.0000000000000E+01
(PID.TID 0000.0001) %MON dynstat_theta_min            =   2.0000000000000E+01
(PID.TID 0000.0001) %MON dynstat_theta_mean           =   2.0000000000000E+01
(PID.TID 0000.0001) %MON dynstat_theta_sd             =   3.8014036363165E-13
(PID.TID 0000.0001) %MON dynstat_theta_del2           =   0.0000000000000E+00
(PID.TID 0000.0001) %MON dynstat_salt_max             =   3.0000000000000E+01
(PID.TID 0000.0001) %MON dynstat_salt_min             =   3.0000000000000E+01
(PID.TID 0000.0001) %MON dynstat_salt_mean            =   2.9999999999999E+01
(PID.TID 0000.0001) %MON dynstat_salt_sd              =   5.5777604757167E-13
(PID.TID 0000.0001) %MON dynstat_salt_del2            =   0.0000000000000E+00
(PID.TID 0000.0001) %MON trAdv_CFL_u_max              =   8.5716137952684E-03
(PID.TID 0000.0001) %MON trAdv_CFL_v_max              =   6.8012951177826E-03
(PID.TID 0000.0001) %MON trAdv_CFL_w_max              =   4.4599722873320E-09
(PID.TID 0000.0001) %MON advcfl_uvel_max              =   8.5725589928416E-03
(PID.TID 0000.0001) %MON advcfl_vvel_max              =   6.8106109196463E-03
(PID.TID 0000.0001) %MON advcfl_wvel_max              =   8.1435382196680E-09
(PID.TID 0000.0001) %MON advcfl_W_hf_max              =   0.0000000000000E+00
(PID.TID 0000.0001) %MON pe_b_mean                    =   1.1801620774007E-05
(PID.TID 0000.0001) %MON ke_max                       =   1.0218906817976E-02
(PID.TID 0000.0001) %MON ke_mean                      =   1.7497623053948E-03
(PID.TID 0000.0001) %MON ke_vol                       =   6.8893493896486E+15
(PID.TID 0000.0001) %MON vort_r_min                   =  -1.0328829462714E-06
(PID.TID 0000.0001) %MON vort_r_max                   =   3.0899358884755E-06
(PID.TID 0000.0001) %MON vort_a_mean                  =   1.0600000000000E-04
(PID.TID 0000.0001) %MON vort_a_sd                    =   3.5596214365100E-06
(PID.TID 0000.0001) %MON vort_p_mean                  =   1.1652272308690E-04
(PID.TID 0000.0001) %MON vort_p_sd                    =   4.1787671422988E-05
(PID.TID 0000.0001) %MON surfExpan_theta_mean         =   2.4863311409717E-20
(PID.TID 0000.0001) %MON surfExpan_salt_mean          =   3.7284861617890E-20
(PID.TID 0000.0001) // =======================================================
(PID.TID 0000.0001) // End MONITOR dynamic field statistics
(PID.TID 0000.0001) // =======================================================
 cg2d: Sum(rhs),rhsMax =  -4.38831687141530E-03  1.89078348532749E-01
 cg2d: Sum(rhs),rhsMax =  -4.38892406005620E-03  1.89083771977802E-01
 cg2d: Sum(rhs),rhsMax =  -4.38953046013227E-03  1.89089196869047E-01
 cg2d: Sum(rhs),rhsMax =  -4.39013606866632E-03  1.89094623208778E-01
 cg2d: Sum(rhs),rhsMax =  -4.39074088376791E-03  1.89100050999297E-01
 cg2d: Sum(rhs),rhsMax =  -4.39134490318410E-03  1.89105480242897E-01
 cg2d: Sum(rhs),rhsMax =  -4.39194812401995E-03  1.89110910941861E-01
 cg2d: Sum(rhs),rhsMax =  -4.39255054365315E-03  1.89116343098479E-01
 cg2d: Sum(rhs),rhsMax =  -4.39315216031143E-03  1.89121776715027E-01
 cg2d: Sum(rhs),rhsMax =  -4.39375297076949E-03  1.89127211793780E-01
 cg2d: Sum(rhs),rhsMax =  -4.39435297295191E-03  1.89132648337018E-01
 cg2d: Sum(rhs),rhsMax =  -4.39495216466956E-03  1.89138086346996E-01
 cg2d: Sum(rhs),rhsMax =  -4.39555054313348E-03  1.89143525825976E-01
 cg2d: Sum(rhs),rhsMax =  -4.39614810581352E-03  1.89148966776228E-01
 cg2d: Sum(rhs),rhsMax =  -4.39674485058300E-03  1.89154409199995E-01
 cg2d: Sum(rhs),rhsMax =  -4.39734077519123E-03  1.89159853099532E-01
 cg2d: Sum(rhs),rhsMax =  -4.39793587722055E-03  1.89165298477077E-01
 cg2d: Sum(rhs),rhsMax =  -4.39853015369902E-03  1.89170745334882E-01
 cg2d: Sum(rhs),rhsMax =  -4.39912360298070E-03  1.89176193675171E-01
 cg2d: Sum(rhs),rhsMax =  -4.39971622214014E-03  1.89181643500181E-01
 cg2d: Sum(rhs),rhsMax =  -4.40030800927259E-03  1.89187094812142E-01
 cg2d: Sum(rhs),rhsMax =  -4.40089896133100E-03  1.89192547613275E-01
 cg2d: Sum(rhs),rhsMax =  -4.40148907699650E-03  1.89198001905797E-01
 cg2d: Sum(rhs),rhsMax =  -4.40207835318545E-03  1.89203457691930E-01
 cg2d: Sum(rhs),rhsMax =  -4.40266678764827E-03  1.89208914973869E-01
 cg2d: Sum(rhs),rhsMax =  -4.40325437860924E-03  1.89214373753831E-01
 cg2d: Sum(rhs),rhsMax =  -4.40384112285058E-03  1.89219834034015E-01
 cg2d: Sum(rhs),rhsMax =  -4.40442701894389E-03  1.89225295816618E-01
 cg2d: Sum(rhs),rhsMax =  -4.40501206394258E-03  1.89230759103834E-01
 cg2d: Sum(rhs),rhsMax =  -4.40559625602526E-03  1.89236223897842E-01
 cg2d: Sum(rhs),rhsMax =  -4.40617959248793E-03  1.89241690200835E-01
 cg2d: Sum(rhs),rhsMax =  -4.40676207140299E-03  1.89247158014988E-01
 cg2d: Sum(rhs),rhsMax =  -4.40734369002798E-03  1.89252627342475E-01
 cg2d: Sum(rhs),rhsMax =  -4.40792444679928E-03  1.89258098185473E-01
 cg2d: Sum(rhs),rhsMax =  -4.40850433922459E-03  1.89263570546140E-01
 cg2d: Sum(rhs),rhsMax =  -4.40908336473519E-03  1.89269044426641E-01
 cg2d: Sum(rhs),rhsMax =  -4.40966152123404E-03  1.89274519829130E-01
 cg2d: Sum(rhs),rhsMax =  -4.41023880651016E-03  1.89279996755764E-01
 cg2d: Sum(rhs),rhsMax =  -4.41081521851034E-03  1.89285475208685E-01
 cg2d: Sum(rhs),rhsMax =  -4.41139075498365E-03  1.89290955190044E-01
 cg2d: Sum(rhs),rhsMax =  -4.41196541343883E-03  1.89296436701977E-01
 cg2d: Sum(rhs),rhsMax =  -4.41253919197700E-03  1.89301919746617E-01
 cg2d: Sum(rhs),rhsMax =  -4.41311208819519E-03  1.89307404326099E-01
 cg2d: Sum(rhs),rhsMax =  -4.41368410008339E-03  1.89312890442544E-01
 cg2d: Sum(rhs),rhsMax =  -4.41425522548044E-03  1.89318378098074E-01
 cg2d: Sum(rhs),rhsMax =  -4.41482546198107E-03  1.89323867294812E-01
 cg2d: Sum(rhs),rhsMax =  -4.41539480766739E-03  1.89329358034863E-01
 cg2d: Sum(rhs),rhsMax =  -4.41596326033929E-03  1.89334850320338E-01
 cg2d: Sum(rhs),rhsMax =  -4.41653081772345E-03  1.89340344153343E-01
 cg2d: Sum(rhs),rhsMax =  -4.41709747792821E-03  1.89345839535971E-01
 cg2d: Sum(rhs),rhsMax =  -4.41766323883100E-03  1.89351336470324E-01
 cg2d: Sum(rhs),rhsMax =  -4.41822809820719E-03  1.89356834958488E-01
 cg2d: Sum(rhs),rhsMax =  -4.41879205402156E-03  1.89362335002552E-01
 cg2d: Sum(rhs),rhsMax =  -4.41935510421416E-03  1.89367836604595E-01
 cg2d: Sum(rhs),rhsMax =  -4.41991724627696E-03  1.89373339766695E-01
 cg2d: Sum(rhs),rhsMax =  -4.42047847840142E-03  1.89378844490922E-01
 cg2d: Sum(rhs),rhsMax =  -4.42103879873040E-03  1.89384350779345E-01
 cg2d: Sum(rhs),rhsMax =  -4.42159820498477E-03  1.89389858634027E-01
 cg2d: Sum(rhs),rhsMax =  -4.42215669457456E-03  1.89395368057025E-01
 cg2d: Sum(rhs),rhsMax =  -4.42271426670875E-03  1.89400879050401E-01
 cg2d: Sum(rhs),rhsMax =  -4.42327091826689E-03  1.89406391616198E-01
 cg2d: Sum(rhs),rhsMax =  -4.42382664752088E-03  1.89411905756463E-01
 cg2d: Sum(rhs),rhsMax =  -4.42438145278707E-03  1.89417421473241E-01
 cg2d: Sum(rhs),rhsMax =  -4.42493533163208E-03  1.89422938768559E-01
 cg2d: Sum(rhs),rhsMax =  -4.42548828223834E-03  1.89428457644457E-01
 cg2d: Sum(rhs),rhsMax =  -4.42604030296469E-03  1.89433978102964E-01
 cg2d: Sum(rhs),rhsMax =  -4.42659139089041E-03  1.89439500146094E-01
 cg2d: Sum(rhs),rhsMax =  -4.42714154494872E-03  1.89445023775869E-01
 cg2d: Sum(rhs),rhsMax =  -4.42769076240040E-03  1.89450548994309E-01
 cg2d: Sum(rhs),rhsMax =  -4.42823904200262E-03  1.89456075803416E-01
 cg2d: Sum(rhs),rhsMax =  -4.42878638128527E-03  1.89461604205199E-01
 cg2d: Sum(rhs),rhsMax =  -4.42933277814870E-03  1.89467134201653E-01
(PID.TID 0000.0001)      cg2d_init_res =   5.83964115424178E-04
(PID.TID 0000.0001)      cg2d_iters(min,last) =      -1      74
(PID.TID 0000.0001)      cg2d_last_res =   9.29140573893469E-08
(PID.TID 0000.0001) // =======================================================
(PID.TID 0000.0001) // Begin MONITOR dynamic field statistics
(PID.TID 0000.0001) // =======================================================
(PID.TID 0000.0001) %MON time_tsnumber                =                 11952
(PID.TID 0000.0001) %MON time_secondsf                =   1.4342400000000E+07
(PID.TID 0000.0001) %MON dynstat_eta_max              =   2.7070583250988E-01
(PID.TID 0000.0001) %MON dynstat_eta_min              =  -9.3343068155366E-02
(PID.TID 0000.0001) %MON dynstat_eta_mean             =   4.1945537869044E-06
(PID.TID 0000.0001) %MON dynstat_eta_sd               =   1.0774518544379E-01
(PID.TID 0000.0001) %MON dynstat_eta_del2             =   2.9203808402564E-05
(PID.TID 0000.0001) %MON dynstat_uvel_max             =   1.4319662079016E-01
(PID.TID 0000.0001) %MON dynstat_uvel_min             =  -1.0170451596604E-01
(PID.TID 0000.0001) %MON dynstat_uvel_mean            =   2.2002322187772E-08
(PID.TID 0000.0001) %MON dynstat_uvel_sd              =   4.4447308140164E-02
(PID.TID 0000.0001) %MON dynstat_uvel_del2            =   6.7831183766778E-05
(PID.TID 0000.0001) %MON dynstat_vvel_max             =   8.4664411948285E-02
(PID.TID 0000.0001) %MON dynstat_vvel_min             =  -1.1405082609499E-01
(PID.TID 0000.0001) %MON dynstat_vvel_mean            =   9.0108569087253E-08
(PID.TID 0000.0001) %MON dynstat_vvel_sd              =   4.0234896541089E-02
(PID.TID 0000.0001) %MON dynstat_vvel_del2            =   4.0861325477732E-05
(PID.TID 0000.0001) %MON dynstat_wvel_max             =   1.6786606400274E-08
(PID.TID 0000.0001) %MON dynstat_wvel_min             =  -6.8413882283494E-09
(PID.TID 0000.0001) %MON dynstat_wvel_mean            =  -4.6511823054768E-21
(PID.TID 0000.0001) %MON dynstat_wvel_sd              =   5.5755490000843E-09
(PID.TID 0000.0001) %MON dynstat_wvel_del2            =   1.9111451671670E-12
(PID.TID 0000.0001) %MON dynstat_theta_max            =   2.0000000000000E+01
(PID.TID 0000.0001) %MON dynstat_theta_min            =   2.0000000000000E+01
(PID.TID 0000.0001) %MON dynstat_theta_mean           =   2.0000000000000E+01
(PID.TID 0000.0001) %MON dynstat_theta_sd             =   3.8014036363165E-13
(PID.TID 0000.0001) %MON dynstat_theta_del2           =   0.0000000000000E+00
(PID.TID 0000.0001) %MON dynstat_salt_max             =   3.0000000000000E+01
(PID.TID 0000.0001) %MON dynstat_salt_min             =   3.0000000000000E+01
(PID.TID 0000.0001) %MON dynstat_salt_mean            =   2.9999999999999E+01
(PID.TID 0000.0001) %MON dynstat_salt_sd              =   5.5777604757167E-13
(PID.TID 0000.0001) %MON dynstat_salt_del2            =   0.0000000000000E+00
(PID.TID 0000.0001) %MON trAdv_CFL_u_max              =   8.5908515437223E-03
(PID.TID 0000.0001) %MON trAdv_CFL_v_max              =   6.8336864169419E-03
(PID.TID 0000.0001) %MON trAdv_CFL_w_max              =   4.4277599625274E-09
(PID.TID 0000.0001) %MON advcfl_uvel_max              =   8.5917972474098E-03
(PID.TID 0000.0001) %MON advcfl_vvel_max              =   6.8430495656993E-03
(PID.TID 0000.0001) %MON advcfl_wvel_max              =   8.0575710721314E-09
(PID.TID 0000.0001) %MON advcfl_W_hf_max              =   0.0000000000000E+00
(PID.TID 0000.0001) %MON pe_b_mean                    =   1.1901975175017E-05
(PID.TID 0000.0001) %MON ke_max                       =   1.0264988208818E-02
(PID.TID 0000.0001) %MON ke_mean                      =   1.7641569366553E-03
(PID.TID 0000.0001) %MON ke_vol                       =   6.8893493896486E+15
(PID.TID 0000.0001) %MON vort_r_min                   =  -1.0334245035406E-06
(PID.TID 0000.0001) %MON vort_r_max                   =   3.0962811732438E-06
(PID.TID 0000.0001) %MON vort_a_mean                  =   1.0600000000000E-04
(PID.TID 0000.0001) %MON vort_a_sd                    =   3.5598268239706E-06
(PID.TID 0000.0001) %MON vort_p_mean                  =   1.1652272308690E-04
(PID.TID 0000.0001) %MON vort_p_sd                    =   4.1787678224075E-05
(PID.TID 0000.0001) %MON surfExpan_theta_mean         =  -9.2982888055815E-20
(PID.TID 0000.0001) %MON surfExpan_salt_mean          =  -1.3948001765919E-19
(PID.TID 0000.0001) // =======================================================
(PID.TID 0000.0001) // End MONITOR dynamic field statistics
(PID.TID 0000.0001) // =======================================================
 cg2d: Sum(rhs),rhsMax =  -4.42987823123309E-03  1.89472665794781E-01
 cg2d: Sum(rhs),rhsMax =  -4.43042273816815E-03  1.89478198986568E-01
 cg2d: Sum(rhs),rhsMax =  -4.43096629761290E-03  1.89483733779004E-01
 cg2d: Sum(rhs),rhsMax =  -4.43150890666386E-03  1.89489270174071E-01
 cg2d: Sum(rhs),rhsMax =  -4.43205056429734E-03  1.89494808173747E-01
 cg2d: Sum(rhs),rhsMax =  -4.43259126829684E-03  1.89500347780005E-01
 cg2d: Sum(rhs),rhsMax =  -4.43313101702638E-03  1.89505888994809E-01
 cg2d: Sum(rhs),rhsMax =  -4.43366980815761E-03  1.89511431820129E-01
 cg2d: Sum(rhs),rhsMax =  -4.43420764003465E-03  1.89516976257922E-01
 cg2d: Sum(rhs),rhsMax =  -4.43474451075857E-03  1.89522522310145E-01
 cg2d: Sum(rhs),rhsMax =  -4.43528041838900E-03  1.89528069978743E-01
 cg2d: Sum(rhs),rhsMax =  -4.43581536131965E-03  1.89533619265667E-01
 cg2d: Sum(rhs),rhsMax =  -4.43634933749096E-03  1.89539170172856E-01
 cg2d: Sum(rhs),rhsMax =  -4.43688234535101E-03  1.89544722702248E-01
 cg2d: Sum(rhs),rhsMax =  -4.43741438277445E-03  1.89550276855778E-01
 cg2d: Sum(rhs),rhsMax =  -4.43794544793651E-03  1.89555832635365E-01
 cg2d: Sum(rhs),rhsMax =  -4.43847553928028E-03  1.89561390042941E-01
 cg2d: Sum(rhs),rhsMax =  -4.43900465510527E-03  1.89566949080416E-01
 cg2d: Sum(rhs),rhsMax =  -4.43953279301652E-03  1.89572509749712E-01
 cg2d: Sum(rhs),rhsMax =  -4.44005995170329E-03  1.89578072052730E-01
 cg2d: Sum(rhs),rhsMax =  -4.44058612937892E-03  1.89583635991384E-01
 cg2d: Sum(rhs),rhsMax =  -4.44111132412332E-03  1.89589201567567E-01
 cg2d: Sum(rhs),rhsMax =  -4.44163553453838E-03  1.89594768783180E-01
 cg2d: Sum(rhs),rhsMax =  -4.44215875835523E-03  1.89600337640109E-01
 cg2d: Sum(rhs),rhsMax =  -4.44268099440562E-03  1.89605908140239E-01
 cg2d: Sum(rhs),rhsMax =  -4.44320224069296E-03  1.89611480285457E-01
 cg2d: Sum(rhs),rhsMax =  -4.44372249557554E-03  1.89617054077643E-01
 cg2d: Sum(rhs),rhsMax =  -4.44424175696039E-03  1.89622629518661E-01
 cg2d: Sum(rhs),rhsMax =  -4.44476002365330E-03  1.89628206610381E-01
 cg2d: Sum(rhs),rhsMax =  -4.44527729374034E-03  1.89633785354672E-01
 cg2d: Sum(rhs),rhsMax =  -4.44579356514676E-03  1.89639365753386E-01
 cg2d: Sum(rhs),rhsMax =  -4.44630883697089E-03  1.89644947808385E-01
 cg2d: Sum(rhs),rhsMax =  -4.44682310694618E-03  1.89650531521511E-01
 cg2d: Sum(rhs),rhsMax =  -4.44733637364052E-03  1.89656116894612E-01
 cg2d: Sum(rhs),rhsMax =  -4.44784863554109E-03  1.89661703929531E-01
 cg2d: Sum(rhs),rhsMax =  -4.44835989075169E-03  1.89667292628100E-01
 cg2d: Sum(rhs),rhsMax =  -4.44887013766118E-03  1.89672882992149E-01
 cg2d: Sum(rhs),rhsMax =  -4.44937937479272E-03  1.89678475023508E-01
 cg2d: Sum(rhs),rhsMax =  -4.44988760077052E-03  1.89684068724001E-01
 cg2d: Sum(rhs),rhsMax =  -4.45039481354603E-03  1.89689664095441E-01
 cg2d: Sum(rhs),rhsMax =  -4.45090101154299E-03  1.89695261139642E-01
 cg2d: Sum(rhs),rhsMax =  -4.45140619371258E-03  1.89700859858414E-01
 cg2d: Sum(rhs),rhsMax =  -4.45191035787822E-03  1.89706460253555E-01
 cg2d: Sum(rhs),rhsMax =  -4.45241350255858E-03  1.89712062326868E-01
 cg2d: Sum(rhs),rhsMax =  -4.45291562601904E-03  1.89717666080147E-01
 cg2d: Sum(rhs),rhsMax =  -4.45341672733697E-03  1.89723271515185E-01
 cg2d: Sum(rhs),rhsMax =  -4.45391680432958E-03  1.89728878633753E-01
 cg2d: Sum(rhs),rhsMax =  -4.45441585630028E-03  1.89734487437651E-01
 cg2d: Sum(rhs),rhsMax =  -4.45491388104366E-03  1.89740097928642E-01
 cg2d: Sum(rhs),rhsMax =  -4.45541087705894E-03  1.89745710108502E-01
 cg2d: Sum(rhs),rhsMax =  -4.45590684323521E-03  1.89751323978992E-01
 cg2d: Sum(rhs),rhsMax =  -4.45640177756286E-03  1.89756939541879E-01
 cg2d: Sum(rhs),rhsMax =  -4.45689567869019E-03  1.89762556798920E-01
 cg2d: Sum(rhs),rhsMax =  -4.45738854508245E-03  1.89768175751869E-01
 cg2d: Sum(rhs),rhsMax =  -4.45788037608122E-03  1.89773796402464E-01
 cg2d: Sum(rhs),rhsMax =  -4.45837116876164E-03  1.89779418752459E-01
 cg2d: Sum(rhs),rhsMax =  -4.45886092285696E-03  1.89785042803587E-01
 cg2d: Sum(rhs),rhsMax =  -4.45934963649922E-03  1.89790668557581E-01
 cg2d: Sum(rhs),rhsMax =  -4.45983730857006E-03  1.89796296016177E-01
 cg2d: Sum(rhs),rhsMax =  -4.46032393687057E-03  1.89801925181091E-01
 cg2d: Sum(rhs),rhsMax =  -4.46080952087749E-03  1.89807556054050E-01
 cg2d: Sum(rhs),rhsMax =  -4.46129405853871E-03  1.89813188636764E-01
 cg2d: Sum(rhs),rhsMax =  -4.46177754890974E-03  1.89818822930948E-01
 cg2d: Sum(rhs),rhsMax =  -4.46225999015884E-03  1.89824458938301E-01
 cg2d: Sum(rhs),rhsMax =  -4.46274138115701E-03  1.89830096660533E-01
 cg2d: Sum(rhs),rhsMax =  -4.46322172053845E-03  1.89835736099335E-01
 cg2d: Sum(rhs),rhsMax =  -4.46370100666352E-03  1.89841377256401E-01
 cg2d: Sum(rhs),rhsMax =  -4.46417923892537E-03  1.89847020133415E-01
 cg2d: Sum(rhs),rhsMax =  -4.46465641500791E-03  1.89852664732064E-01
 cg2d: Sum(rhs),rhsMax =  -4.46513253401047E-03  1.89858311054025E-01
 cg2d: Sum(rhs),rhsMax =  -4.46560759475322E-03  1.89863959100971E-01
 cg2d: Sum(rhs),rhsMax =  -4.46608159558825E-03  1.89869608874563E-01
(PID.TID 0000.0001)      cg2d_init_res =   5.79101384398152E-04
(PID.TID 0000.0001)      cg2d_iters(min,last) =      -1      74
(PID.TID 0000.0001)      cg2d_last_res =   9.11280631598108E-08
(PID.TID 0000.0001) // =======================================================
(PID.TID 0000.0001) // Begin MONITOR dynamic field statistics
(PID.TID 0000.0001) // =======================================================
(PID.TID 0000.0001) %MON time_tsnumber                =                 12024
(PID.TID 0000.0001) %MON time_secondsf                =   1.4428800000000E+07
(PID.TID 0000.0001) %MON dynstat_eta_max              =   2.7201615620457E-01
(PID.TID 0000.0001) %MON dynstat_eta_min              =  -9.3674383273254E-02
(PID.TID 0000.0001) %MON dynstat_eta_mean             =   4.2382682151492E-06
(PID.TID 0000.0001) %MON dynstat_eta_sd               =   1.0820038581408E-01
(PID.TID 0000.0001) %MON dynstat_eta_del2             =   2.9293493242547E-05
(PID.TID 0000.0001) %MON dynstat_uvel_max             =   1.4351653789699E-01
(PID.TID 0000.0001) %MON dynstat_uvel_min             =  -1.0222867993758E-01
(PID.TID 0000.0001) %MON dynstat_uvel_mean            =   1.1973271045729E-08
(PID.TID 0000.0001) %MON dynstat_uvel_sd              =   4.4615003025621E-02
(PID.TID 0000.0001) %MON dynstat_uvel_del2            =   6.7939727129030E-05
(PID.TID 0000.0001) %MON dynstat_vvel_max             =   8.5102134321331E-02
(PID.TID 0000.0001) %MON dynstat_vvel_min             =  -1.1459690849414E-01
(PID.TID 0000.0001) %MON dynstat_vvel_mean            =   8.6315216188029E-08
(PID.TID 0000.0001) %MON dynstat_vvel_sd              =   4.0414267088228E-02
(PID.TID 0000.0001) %MON dynstat_vvel_del2            =   4.0827189729669E-05
(PID.TID 0000.0001) %MON dynstat_wvel_max             =   1.6654475835385E-08
(PID.TID 0000.0001) %MON dynstat_wvel_min             =  -6.6348320333054E-09
(PID.TID 0000.0001) %MON dynstat_wvel_mean            =  -7.7616416799881E-22
(PID.TID 0000.0001) %MON dynstat_wvel_sd              =   5.5587434812769E-09
(PID.TID 0000.0001) %MON dynstat_wvel_del2            =   1.8999601690667E-12
(PID.TID 0000.0001) %MON dynstat_theta_max            =   2.0000000000000E+01
(PID.TID 0000.0001) %MON dynstat_theta_min            =   2.0000000000000E+01
(PID.TID 0000.0001) %MON dynstat_theta_mean           =   2.0000000000000E+01
(PID.TID 0000.0001) %MON dynstat_theta_sd             =   3.8014036363165E-13
(PID.TID 0000.0001) %MON dynstat_theta_del2           =   0.0000000000000E+00
(PID.TID 0000.0001) %MON dynstat_salt_max             =   3.0000000000000E+01
(PID.TID 0000.0001) %MON dynstat_salt_min             =   3.0000000000000E+01
(PID.TID 0000.0001) %MON dynstat_salt_mean            =   2.9999999999999E+01
(PID.TID 0000.0001) %MON dynstat_salt_sd              =   5.5777604757167E-13
(PID.TID 0000.0001) %MON dynstat_salt_del2            =   0.0000000000000E+00
(PID.TID 0000.0001) %MON trAdv_CFL_u_max              =   8.6100452560587E-03
(PID.TID 0000.0001) %MON trAdv_CFL_v_max              =   6.8664047451832E-03
(PID.TID 0000.0001) %MON trAdv_CFL_w_max              =   4.3929735556814E-09
(PID.TID 0000.0001) %MON advcfl_uvel_max              =   8.6109922738192E-03
(PID.TID 0000.0001) %MON advcfl_vvel_max              =   6.8758145096487E-03
(PID.TID 0000.0001) %MON advcfl_wvel_max              =   7.9941484009847E-09
(PID.TID 0000.0001) %MON advcfl_W_hf_max              =   0.0000000000000E+00
(PID.TID 0000.0001) %MON pe_b_mean                    =   1.2002754211874E-05
(PID.TID 0000.0001) %MON ke_max                       =   1.0311113813357E-02
(PID.TID 0000.0001) %MON ke_mean                      =   1.7785873006609E-03
(PID.TID 0000.0001) %MON ke_vol                       =   6.8893493896486E+15
(PID.TID 0000.0001) %MON vort_r_min                   =  -1.0339947111578E-06
(PID.TID 0000.0001) %MON vort_r_max                   =   3.1026514786509E-06
(PID.TID 0000.0001) %MON vort_a_mean                  =   1.0600000000000E-04
(PID.TID 0000.0001) %MON vort_a_sd                    =   3.5600314101113E-06
(PID.TID 0000.0001) %MON vort_p_mean                  =   1.1652272308690E-04
(PID.TID 0000.0001) %MON vort_p_sd                    =   4.1787683654599E-05
(PID.TID 0000.0001) %MON surfExpan_theta_mean         =  -1.5484305196070E-20
(PID.TID 0000.0001) %MON surfExpan_salt_mean          =  -2.3225905149755E-20
(PID.TID 0000.0001) // =======================================================
(PID.TID 0000.0001) // End MONITOR dynamic field statistics
(PID.TID 0000.0001) // =======================================================
 cg2d: Sum(rhs),rhsMax =  -4.46655453541027E-03  1.89875260376475E-01
 cg2d: Sum(rhs),rhsMax =  -4.46702641317917E-03  1.89880913608364E-01
 cg2d: Sum(rhs),rhsMax =  -4.46749722687844E-03  1.89886568571882E-01
 cg2d: Sum(rhs),rhsMax =  -4.46796697608316E-03  1.89892225268675E-01
 cg2d: Sum(rhs),rhsMax =  -4.46843565884095E-03  1.89897883700397E-01
 cg2d: Sum(rhs),rhsMax =  -4.46890327454460E-03  1.89903543868682E-01
 cg2d: Sum(rhs),rhsMax =  -4.46936982106012E-03  1.89909205775173E-01
 cg2d: Sum(rhs),rhsMax =  -4.46983529792710E-03  1.89914869421490E-01
 cg2d: Sum(rhs),rhsMax =  -4.47029970307317E-03  1.89920534809268E-01
 cg2d: Sum(rhs),rhsMax =  -4.47076303610386E-03  1.89926201940122E-01
 cg2d: Sum(rhs),rhsMax =  -4.47122529545069E-03  1.89931870815676E-01
 cg2d: Sum(rhs),rhsMax =  -4.47168648010894E-03  1.89937541437538E-01
 cg2d: Sum(rhs),rhsMax =  -4.47214658841925E-03  1.89943213807319E-01
 cg2d: Sum(rhs),rhsMax =  -4.47260561980313E-03  1.89948887926612E-01
 cg2d: Sum(rhs),rhsMax =  -4.47306357269048E-03  1.89954563797027E-01
 cg2d: Sum(rhs),rhsMax =  -4.47352044565836E-03  1.89960241420151E-01
 cg2d: Sum(rhs),rhsMax =  -4.47397623825186E-03  1.89965920797575E-01
 cg2d: Sum(rhs),rhsMax =  -4.47443094860669E-03  1.89971601930882E-01
 cg2d: Sum(rhs),rhsMax =  -4.47488457585747E-03  1.89977284821653E-01
 cg2d: Sum(rhs),rhsMax =  -4.47533711910289E-03  1.89982969471456E-01
 cg2d: Sum(rhs),rhsMax =  -4.47578857692408E-03  1.89988655881873E-01
 cg2d: Sum(rhs),rhsMax =  -4.47623894804323E-03  1.89994344054455E-01
 cg2d: Sum(rhs),rhsMax =  -4.47668823185346E-03  1.90000033990775E-01
 cg2d: Sum(rhs),rhsMax =  -4.47713642662545E-03  1.90005725692379E-01
 cg2d: Sum(rhs),rhsMax =  -4.47758353211997E-03  1.90011419160823E-01
 cg2d: Sum(rhs),rhsMax =  -4.47802954647879E-03  1.90017114397650E-01
 cg2d: Sum(rhs),rhsMax =  -4.47847446908876E-03  1.90022811404408E-01
 cg2d: Sum(rhs),rhsMax =  -4.47891829859360E-03  1.90028510182632E-01
 cg2d: Sum(rhs),rhsMax =  -4.47936103387883E-03  1.90034210733844E-01
 cg2d: Sum(rhs),rhsMax =  -4.47980267444889E-03  1.90039913059584E-01
 cg2d: Sum(rhs),rhsMax =  -4.48024321860670E-03  1.90045617161369E-01
 cg2d: Sum(rhs),rhsMax =  -4.48068266574392E-03  1.90051323040716E-01
 cg2d: Sum(rhs),rhsMax =  -4.48112101474095E-03  1.90057030699141E-01
 cg2d: Sum(rhs),rhsMax =  -4.48155826462478E-03  1.90062740138151E-01
 cg2d: Sum(rhs),rhsMax =  -4.48199441399181E-03  1.90068451359249E-01
 cg2d: Sum(rhs),rhsMax =  -4.48242946276011E-03  1.90074164363938E-01
 cg2d: Sum(rhs),rhsMax =  -4.48286340862655E-03  1.90079879153708E-01
 cg2d: Sum(rhs),rhsMax =  -4.48329625172087E-03  1.90085595730046E-01
 cg2d: Sum(rhs),rhsMax =  -4.48372799106657E-03  1.90091314094443E-01
 cg2d: Sum(rhs),rhsMax =  -4.48415862530670E-03  1.90097034248377E-01
 cg2d: Sum(rhs),rhsMax =  -4.48458815366085E-03  1.90102756193321E-01
 cg2d: Sum(rhs),rhsMax =  -4.48501657507296E-03  1.90108479930745E-01
 cg2d: Sum(rhs),rhsMax =  -4.48544388867484E-03  1.90114205462120E-01
 cg2d: Sum(rhs),rhsMax =  -4.48587009373805E-03  1.90119932788908E-01
 cg2d: Sum(rhs),rhsMax =  -4.48629518953202E-03  1.90125661912555E-01
 cg2d: Sum(rhs),rhsMax =  -4.48671917438461E-03  1.90131392834524E-01
 cg2d: Sum(rhs),rhsMax =  -4.48714204793056E-03  1.90137125556254E-01
 cg2d: Sum(rhs),rhsMax =  -4.48756380940773E-03  1.90142860079189E-01
 cg2d: Sum(rhs),rhsMax =  -4.48798445802946E-03  1.90148596404766E-01
 cg2d: Sum(rhs),rhsMax =  -4.48840399248149E-03  1.90154334534423E-01
 cg2d: Sum(rhs),rhsMax =  -4.48882241214106E-03  1.90160074469579E-01
 cg2d: Sum(rhs),rhsMax =  -4.48923971621980E-03  1.90165816211666E-01
 cg2d: Sum(rhs),rhsMax =  -4.48965590394060E-03  1.90171559762097E-01
 cg2d: Sum(rhs),rhsMax =  -4.49007097460586E-03  1.90177305122284E-01
 cg2d: Sum(rhs),rhsMax =  -4.49048492712643E-03  1.90183052293639E-01
 cg2d: Sum(rhs),rhsMax =  -4.49089776105776E-03  1.90188801277568E-01
 cg2d: Sum(rhs),rhsMax =  -4.49130947535660E-03  1.90194552075466E-01
 cg2d: Sum(rhs),rhsMax =  -4.49172006940020E-03  1.90200304688729E-01
 cg2d: Sum(rhs),rhsMax =  -4.49212954279487E-03  1.90206059118747E-01
 cg2d: Sum(rhs),rhsMax =  -4.49253789397822E-03  1.90211815366904E-01
 cg2d: Sum(rhs),rhsMax =  -4.49294512249787E-03  1.90217573434583E-01
 cg2d: Sum(rhs),rhsMax =  -4.49335122772484E-03  1.90223333323159E-01
 cg2d: Sum(rhs),rhsMax =  -4.49375620903204E-03  1.90229095033996E-01
 cg2d: Sum(rhs),rhsMax =  -4.49416006565226E-03  1.90234858568470E-01
 cg2d: Sum(rhs),rhsMax =  -4.49456279686676E-03  1.90240623927939E-01
 cg2d: Sum(rhs),rhsMax =  -4.49496440212841E-03  1.90246391113752E-01
 cg2d: Sum(rhs),rhsMax =  -4.49536488107520E-03  1.90252160127272E-01
 cg2d: Sum(rhs),rhsMax =  -4.49576423230565E-03  1.90257930969840E-01
 cg2d: Sum(rhs),rhsMax =  -4.49616245555808E-03  1.90263703642797E-01
 cg2d: Sum(rhs),rhsMax =  -4.49655955025802E-03  1.90269478147482E-01
 cg2d: Sum(rhs),rhsMax =  -4.49695551557623E-03  1.90275254485225E-01
 cg2d: Sum(rhs),rhsMax =  -4.49735035081542E-03  1.90281032657365E-01
(PID.TID 0000.0001)      cg2d_init_res =   5.73985805737197E-04
(PID.TID 0000.0001)      cg2d_iters(min,last) =      -1      74
(PID.TID 0000.0001)      cg2d_last_res =   8.82691405652405E-08
(PID.TID 0000.0001) // =======================================================
(PID.TID 0000.0001) // Begin MONITOR dynamic field statistics
(PID.TID 0000.0001) // =======================================================
(PID.TID 0000.0001) %MON time_tsnumber                =                 12096
(PID.TID 0000.0001) %MON time_secondsf                =   1.4515200000000E+07
(PID.TID 0000.0001) %MON dynstat_eta_max              =   2.7332327175504E-01
(PID.TID 0000.0001) %MON dynstat_eta_min              =  -9.4011029256728E-02
(PID.TID 0000.0001) %MON dynstat_eta_mean             =   4.2771141759865E-06
(PID.TID 0000.0001) %MON dynstat_eta_sd               =   1.0865570322693E-01
(PID.TID 0000.0001) %MON dynstat_eta_del2             =   2.9382069688296E-05
(PID.TID 0000.0001) %MON dynstat_uvel_max             =   1.4383668834877E-01
(PID.TID 0000.0001) %MON dynstat_uvel_min             =  -1.0274106000251E-01
(PID.TID 0000.0001) %MON dynstat_uvel_mean            =   1.2676556140504E-09
(PID.TID 0000.0001) %MON dynstat_uvel_sd              =   4.4781384910374E-02
(PID.TID 0000.0001) %MON dynstat_uvel_del2            =   6.8046345276829E-05
(PID.TID 0000.0001) %MON dynstat_vvel_max             =   8.5546486329559E-02
(PID.TID 0000.0001) %MON dynstat_vvel_min             =  -1.1514700462176E-01
(PID.TID 0000.0001) %MON dynstat_vvel_mean            =   8.3948046601966E-08
(PID.TID 0000.0001) %MON dynstat_vvel_sd              =   4.0594496341341E-02
(PID.TID 0000.0001) %MON dynstat_vvel_del2            =   4.0793366330572E-05
(PID.TID 0000.0001) %MON dynstat_wvel_max             =   1.6506836393382E-08
(PID.TID 0000.0001) %MON dynstat_wvel_min             =  -6.4180405624211E-09
(PID.TID 0000.0001) %MON dynstat_wvel_mean            =   6.8452826932723E-21
(PID.TID 0000.0001) %MON dynstat_wvel_sd              =   5.5436820245587E-09
(PID.TID 0000.0001) %MON dynstat_wvel_del2            =   1.8883262534755E-12
(PID.TID 0000.0001) %MON dynstat_theta_max            =   2.0000000000000E+01
(PID.TID 0000.0001) %MON dynstat_theta_min            =   2.0000000000000E+01
(PID.TID 0000.0001) %MON dynstat_theta_mean           =   2.0000000000000E+01
(PID.TID 0000.0001) %MON dynstat_theta_sd             =   3.8014036363165E-13
(PID.TID 0000.0001) %MON dynstat_theta_del2           =   0.0000000000000E+00
(PID.TID 0000.0001) %MON dynstat_salt_max             =   3.0000000000000E+01
(PID.TID 0000.0001) %MON dynstat_salt_min             =   3.0000000000000E+01
(PID.TID 0000.0001) %MON dynstat_salt_mean            =   2.9999999999999E+01
(PID.TID 0000.0001) %MON dynstat_salt_sd              =   5.5777604757167E-13
(PID.TID 0000.0001) %MON dynstat_salt_del2            =   0.0000000000000E+00
(PID.TID 0000.0001) %MON trAdv_CFL_u_max              =   8.6292521906196E-03
(PID.TID 0000.0001) %MON trAdv_CFL_v_max              =   6.8993647933483E-03
(PID.TID 0000.0001) %MON trAdv_CFL_w_max              =   4.3540870070448E-09
(PID.TID 0000.0001) %MON advcfl_uvel_max              =   8.6302013009265E-03
(PID.TID 0000.0001) %MON advcfl_vvel_max              =   6.9088202773053E-03
(PID.TID 0000.0001) %MON advcfl_wvel_max              =   7.9232814688236E-09
(PID.TID 0000.0001) %MON advcfl_W_hf_max              =   0.0000000000000E+00
(PID.TID 0000.0001) %MON pe_b_mean                    =   1.2103984197580E-05
(PID.TID 0000.0001) %MON ke_max                       =   1.0357408485144E-02
(PID.TID 0000.0001) %MON ke_mean                      =   1.7930533510344E-03
(PID.TID 0000.0001) %MON ke_vol                       =   6.8893493896486E+15
(PID.TID 0000.0001) %MON vort_r_min                   =  -1.0346296530043E-06
(PID.TID 0000.0001) %MON vort_r_max                   =   3.1090658470387E-06
(PID.TID 0000.0001) %MON vort_a_mean                  =   1.0600000000000E-04
(PID.TID 0000.0001) %MON vort_a_sd                    =   3.5602356136726E-06
(PID.TID 0000.0001) %MON vort_p_mean                  =   1.1652272308690E-04
(PID.TID 0000.0001) %MON vort_p_sd                    =   4.1787688535056E-05
(PID.TID 0000.0001) %MON surfExpan_theta_mean         =   1.3693958806411E-19
(PID.TID 0000.0001) %MON surfExpan_salt_mean          =   2.0540117261368E-19
(PID.TID 0000.0001) // =======================================================
(PID.TID 0000.0001) // End MONITOR dynamic field statistics
(PID.TID 0000.0001) // =======================================================
 cg2d: Sum(rhs),rhsMax =  -4.49774405593472E-03  1.90286812665209E-01
 cg2d: Sum(rhs),rhsMax =  -4.49813662978155E-03  1.90292594510088E-01
 cg2d: Sum(rhs),rhsMax =  -4.49852807194522E-03  1.90298378193311E-01
 cg2d: Sum(rhs),rhsMax =  -4.49891838226388E-03  1.90304163716179E-01
 cg2d: Sum(rhs),rhsMax =  -4.49930755961046E-03  1.90309951080013E-01
 cg2d: Sum(rhs),rhsMax =  -4.49969560356230E-03  1.90315740286094E-01
 cg2d: Sum(rhs),rhsMax =  -4.50008251380824E-03  1.90321531335729E-01
 cg2d: Sum(rhs),rhsMax =  -4.50046829018081E-03  1.90327324230200E-01
 cg2d: Sum(rhs),rhsMax =  -4.50085293089419E-03  1.90333118970795E-01
 cg2d: Sum(rhs),rhsMax =  -4.50123643662256E-03  1.90338915558801E-01
 cg2d: Sum(rhs),rhsMax =  -4.50161880608922E-03  1.90344713995478E-01
 cg2d: Sum(rhs),rhsMax =  -4.50200003943382E-03  1.90350514282111E-01
 cg2d: Sum(rhs),rhsMax =  -4.50238013620591E-03  1.90356316419958E-01
 cg2d: Sum(rhs),rhsMax =  -4.50275909539774E-03  1.90362120410278E-01
 cg2d: Sum(rhs),rhsMax =  -4.50313691721168E-03  1.90367926254335E-01
 cg2d: Sum(rhs),rhsMax =  -4.50351360046120E-03  1.90373733953375E-01
 cg2d: Sum(rhs),rhsMax =  -4.50388914578137E-03  1.90379543508647E-01
 cg2d: Sum(rhs),rhsMax =  -4.50426355203878E-03  1.90385354921389E-01
 cg2d: Sum(rhs),rhsMax =  -4.50463681915047E-03  1.90391168192848E-01
 cg2d: Sum(rhs),rhsMax =  -4.50500894637819E-03  1.90396983324240E-01
 cg2d: Sum(rhs),rhsMax =  -4.50537993335557E-03  1.90402800316804E-01
 cg2d: Sum(rhs),rhsMax =  -4.50574978030991E-03  1.90408619171762E-01
 cg2d: Sum(rhs),rhsMax =  -4.50611848622421E-03  1.90414439890333E-01
 cg2d: Sum(rhs),rhsMax =  -4.50648605135663E-03  1.90420262473723E-01
 cg2d: Sum(rhs),rhsMax =  -4.50685247478047E-03  1.90426086923145E-01
 cg2d: Sum(rhs),rhsMax =  -4.50721775697609E-03  1.90431913239804E-01
 cg2d: Sum(rhs),rhsMax =  -4.50758189698201E-03  1.90437741424895E-01
 cg2d: Sum(rhs),rhsMax =  -4.50794489468736E-03  1.90443571479615E-01
 cg2d: Sum(rhs),rhsMax =  -4.50830674989619E-03  1.90449403405154E-01
 cg2d: Sum(rhs),rhsMax =  -4.50866746254668E-03  1.90455237202691E-01
 cg2d: Sum(rhs),rhsMax =  -4.50902703213328E-03  1.90461072873409E-01
 cg2d: Sum(rhs),rhsMax =  -4.50938545867902E-03  1.90466910418484E-01
 cg2d: Sum(rhs),rhsMax =  -4.50974274142995E-03  1.90472749839085E-01
 cg2d: Sum(rhs),rhsMax =  -4.51009888106465E-03  1.90478591136379E-01
 cg2d: Sum(rhs),rhsMax =  -4.51045387659520E-03  1.90484434311522E-01
 cg2d: Sum(rhs),rhsMax =  -4.51080772890020E-03  1.90490279365672E-01
 cg2d: Sum(rhs),rhsMax =  -4.51116043678890E-03  1.90496126299982E-01
 cg2d: Sum(rhs),rhsMax =  -4.51151200043686E-03  1.90501975115592E-01
 cg2d: Sum(rhs),rhsMax =  -4.51186241954299E-03  1.90507825813653E-01
 cg2d: Sum(rhs),rhsMax =  -4.51221169420292E-03  1.90513678395291E-01
 cg2d: Sum(rhs),rhsMax =  -4.51255982481290E-03  1.90519532861650E-01
 cg2d: Sum(rhs),rhsMax =  -4.51290681047825E-03  1.90525389213843E-01
 cg2d: Sum(rhs),rhsMax =  -4.51325265167202E-03  1.90531247452998E-01
 cg2d: Sum(rhs),rhsMax =  -4.51359734751207E-03  1.90537107580239E-01
 cg2d: Sum(rhs),rhsMax =  -4.51394089916477E-03  1.90542969596669E-01
 cg2d: Sum(rhs),rhsMax =  -4.51428330582821E-03  1.90548833503398E-01
 cg2d: Sum(rhs),rhsMax =  -4.51462456751340E-03  1.90554699301529E-01
 cg2d: Sum(rhs),rhsMax =  -4.51496468457853E-03  1.90560566992165E-01
 cg2d: Sum(rhs),rhsMax =  -4.51530365663212E-03  1.90566436576394E-01
 cg2d: Sum(rhs),rhsMax =  -4.51564148445373E-03  1.90572308055305E-01
 cg2d: Sum(rhs),rhsMax =  -4.51597816720465E-03  1.90578181429985E-01
 cg2d: Sum(rhs),rhsMax =  -4.51631370529814E-03  1.90584056701512E-01
 cg2d: Sum(rhs),rhsMax =  -4.51664809886547E-03  1.90589933870956E-01
 cg2d: Sum(rhs),rhsMax =  -4.51698134804310E-03  1.90595812939392E-01
 cg2d: Sum(rhs),rhsMax =  -4.51731345295600E-03  1.90601693907881E-01
 cg2d: Sum(rhs),rhsMax =  -4.51764441368098E-03  1.90607576777485E-01
 cg2d: Sum(rhs),rhsMax =  -4.51797423008036E-03  1.90613461549259E-01
 cg2d: Sum(rhs),rhsMax =  -4.51830290267211E-03  1.90619348224249E-01
 cg2d: Sum(rhs),rhsMax =  -4.51863043171502E-03  1.90625236803502E-01
 cg2d: Sum(rhs),rhsMax =  -4.51895681672231E-03  1.90631127288063E-01
 cg2d: Sum(rhs),rhsMax =  -4.51928205868912E-03  1.90637019678965E-01
 cg2d: Sum(rhs),rhsMax =  -4.51960615785565E-03  1.90642913977238E-01
 cg2d: Sum(rhs),rhsMax =  -4.51992911399490E-03  1.90648810183908E-01
 cg2d: Sum(rhs),rhsMax =  -4.52025092740765E-03  1.90654708300001E-01
 cg2d: Sum(rhs),rhsMax =  -4.52057159864040E-03  1.90660608326527E-01
 cg2d: Sum(rhs),rhsMax =  -4.52089112778026E-03  1.90666510264505E-01
 cg2d: Sum(rhs),rhsMax =  -4.52120951514179E-03  1.90672414114935E-01
 cg2d: Sum(rhs),rhsMax =  -4.52152676094512E-03  1.90678319878826E-01
 cg2d: Sum(rhs),rhsMax =  -4.52184286586912E-03  1.90684227557167E-01
 cg2d: Sum(rhs),rhsMax =  -4.52215783018208E-03  1.90690137150958E-01
 cg2d: Sum(rhs),rhsMax =  -4.52247165385762E-03  1.90696048661182E-01
 cg2d: Sum(rhs),rhsMax =  -4.52278433759375E-03  1.90701962088827E-01
(PID.TID 0000.0001)      cg2d_init_res =   5.68591406371979E-04
(PID.TID 0000.0001)      cg2d_iters(min,last) =      -1      74
(PID.TID 0000.0001)      cg2d_last_res =   8.44073561397337E-08
(PID.TID 0000.0001) // =======================================================
(PID.TID 0000.0001) // Begin MONITOR dynamic field statistics
(PID.TID 0000.0001) // =======================================================
(PID.TID 0000.0001) %MON time_tsnumber                =                 12168
(PID.TID 0000.0001) %MON time_secondsf                =   1.4601600000000E+07
(PID.TID 0000.0001) %MON dynstat_eta_max              =   2.7462713108325E-01
(PID.TID 0000.0001) %MON dynstat_eta_min              =  -9.4351509781095E-02
(PID.TID 0000.0001) %MON dynstat_eta_mean             =   4.3107401094964E-06
(PID.TID 0000.0001) %MON dynstat_eta_sd               =   1.0911119832951E-01
(PID.TID 0000.0001) %MON dynstat_eta_del2             =   2.9469608229946E-05
(PID.TID 0000.0001) %MON dynstat_uvel_max             =   1.4415798063414E-01
(PID.TID 0000.0001) %MON dynstat_uvel_min             =  -1.0323674443640E-01
(PID.TID 0000.0001) %MON dynstat_uvel_mean            =  -9.7215210671961E-09
(PID.TID 0000.0001) %MON dynstat_uvel_sd              =   4.4946940465110E-02
(PID.TID 0000.0001) %MON dynstat_uvel_del2            =   6.8151287238485E-05
(PID.TID 0000.0001) %MON dynstat_vvel_max             =   8.5998212630434E-02
(PID.TID 0000.0001) %MON dynstat_vvel_min             =  -1.1569964137183E-01
(PID.TID 0000.0001) %MON dynstat_vvel_mean            =   8.3031867455538E-08
(PID.TID 0000.0001) %MON dynstat_vvel_sd              =   4.0775040359801E-02
(PID.TID 0000.0001) %MON dynstat_vvel_del2            =   4.0760410165880E-05
(PID.TID 0000.0001) %MON dynstat_wvel_max             =   1.6346396950539E-08
(PID.TID 0000.0001) %MON dynstat_wvel_min             =  -6.1550314136548E-09
(PID.TID 0000.0001) %MON dynstat_wvel_mean            =   1.8654918802794E-20
(PID.TID 0000.0001) %MON dynstat_wvel_sd              =   5.5304638833951E-09
(PID.TID 0000.0001) %MON dynstat_wvel_del2            =   1.8761206466469E-12
(PID.TID 0000.0001) %MON dynstat_theta_max            =   2.0000000000000E+01
(PID.TID 0000.0001) %MON dynstat_theta_min            =   2.0000000000000E+01
(PID.TID 0000.0001) %MON dynstat_theta_mean           =   2.0000000000000E+01
(PID.TID 0000.0001) %MON dynstat_theta_sd             =   3.8014036363165E-13
(PID.TID 0000.0001) %MON dynstat_theta_del2           =   0.0000000000000E+00
(PID.TID 0000.0001) %MON dynstat_salt_max             =   3.0000000000000E+01
(PID.TID 0000.0001) %MON dynstat_salt_min             =   3.0000000000000E+01
(PID.TID 0000.0001) %MON dynstat_salt_mean            =   2.9999999999999E+01
(PID.TID 0000.0001) %MON dynstat_salt_sd              =   5.5777604757167E-13
(PID.TID 0000.0001) %MON dynstat_salt_del2            =   0.0000000000000E+00
(PID.TID 0000.0001) %MON trAdv_CFL_u_max              =   8.6485268936665E-03
(PID.TID 0000.0001) %MON trAdv_CFL_v_max              =   6.9324783181266E-03
(PID.TID 0000.0001) %MON trAdv_CFL_w_max              =   4.3190526553825E-09
(PID.TID 0000.0001) %MON advcfl_uvel_max              =   8.6494788380486E-03
(PID.TID 0000.0001) %MON advcfl_vvel_max              =   6.9419784823096E-03
(PID.TID 0000.0001) %MON advcfl_wvel_max              =   7.8462705362588E-09
(PID.TID 0000.0001) %MON advcfl_W_hf_max              =   0.0000000000000E+00
(PID.TID 0000.0001) %MON pe_b_mean                    =   1.2205679028486E-05
(PID.TID 0000.0001) %MON ke_max                       =   1.0403991921162E-02
(PID.TID 0000.0001) %MON ke_mean                      =   1.8075546007044E-03
(PID.TID 0000.0001) %MON ke_vol                       =   6.8893493896486E+15
(PID.TID 0000.0001) %MON vort_r_min                   =  -1.0349044047875E-06
(PID.TID 0000.0001) %MON vort_r_max                   =   3.1155421650440E-06
(PID.TID 0000.0001) %MON vort_a_mean                  =   1.0600000000000E-04
(PID.TID 0000.0001) %MON vort_a_sd                    =   3.5604398668762E-06
(PID.TID 0000.0001) %MON vort_p_mean                  =   1.1652272308690E-04
(PID.TID 0000.0001) %MON vort_p_sd                    =   4.1787693691247E-05
(PID.TID 0000.0001) %MON surfExpan_theta_mean         =   3.7313093849257E-19
(PID.TID 0000.0001) %MON surfExpan_salt_mean          =   5.5969767092595E-19
(PID.TID 0000.0001) // =======================================================
(PID.TID 0000.0001) // End MONITOR dynamic field statistics
(PID.TID 0000.0001) // =======================================================
 cg2d: Sum(rhs),rhsMax =  -4.52309588178796E-03  1.90707877434868E-01
 cg2d: Sum(rhs),rhsMax =  -4.52340628706890E-03  1.90713794700283E-01
 cg2d: Sum(rhs),rhsMax =  -4.52371555370758E-03  1.90719713886034E-01
 cg2d: Sum(rhs),rhsMax =  -4.52402368160769E-03  1.90725634993084E-01
 cg2d: Sum(rhs),rhsMax =  -4.52433067208724E-03  1.90731558022400E-01
 cg2d: Sum(rhs),rhsMax =  -4.52463652539909E-03  1.90737482974932E-01
 cg2d: Sum(rhs),rhsMax =  -4.52494124144977E-03  1.90743409851632E-01
 cg2d: Sum(rhs),rhsMax =  -4.52524482172065E-03  1.90749338653442E-01
 cg2d: Sum(rhs),rhsMax =  -4.52554726632588E-03  1.90755269381298E-01
 cg2d: Sum(rhs),rhsMax =  -4.52584857571586E-03  1.90761202036142E-01
 cg2d: Sum(rhs),rhsMax =  -4.52624487084383E-03  1.90767136854561E-01
 cg2d: Sum(rhs),rhsMax =  -4.52663987647658E-03  1.90773073356251E-01
 cg2d: Sum(rhs),rhsMax =  -4.52703361692097E-03  1.90779011791941E-01
 cg2d: Sum(rhs),rhsMax =  -4.52742604863741E-03  1.90784952162084E-01
 cg2d: Sum(rhs),rhsMax =  -4.52781715694633E-03  1.90790894462381E-01
 cg2d: Sum(rhs),rhsMax =  -4.52820694101666E-03  1.90796838694330E-01
 cg2d: Sum(rhs),rhsMax =  -4.52859540627665E-03  1.90802784858909E-01
 cg2d: Sum(rhs),rhsMax =  -4.52898256074957E-03  1.90808732956992E-01
 cg2d: Sum(rhs),rhsMax =  -4.52936840965497E-03  1.90814682989647E-01
 cg2d: Sum(rhs),rhsMax =  -4.52975295501905E-03  1.90820634958136E-01
 cg2d: Sum(rhs),rhsMax =  -4.53013619623006E-03  1.90826588863712E-01
 cg2d: Sum(rhs),rhsMax =  -4.53051813178178E-03  1.90832544707438E-01
 cg2d: Sum(rhs),rhsMax =  -4.53089876172268E-03  1.90838502490163E-01
 cg2d: Sum(rhs),rhsMax =  -4.53127808588224E-03  1.90844462212634E-01
 cg2d: Sum(rhs),rhsMax =  -4.53165610632313E-03  1.90850423875587E-01
 cg2d: Sum(rhs),rhsMax =  -4.53203282367330E-03  1.90856387479802E-01
 cg2d: Sum(rhs),rhsMax =  -4.53240824002001E-03  1.90862353026112E-01
 cg2d: Sum(rhs),rhsMax =  -4.53278235555284E-03  1.90868320515374E-01
 cg2d: Sum(rhs),rhsMax =  -4.53315517164570E-03  1.90874289948451E-01
 cg2d: Sum(rhs),rhsMax =  -4.53352668945836E-03  1.90880261326192E-01
 cg2d: Sum(rhs),rhsMax =  -4.53389690937591E-03  1.90886234649446E-01
 cg2d: Sum(rhs),rhsMax =  -4.53426583289928E-03  1.90892209919050E-01
 cg2d: Sum(rhs),rhsMax =  -4.53463346056163E-03  1.90898187135835E-01
 cg2d: Sum(rhs),rhsMax =  -4.53499979372851E-03  1.90904166300637E-01
 cg2d: Sum(rhs),rhsMax =  -4.53536483389538E-03  1.90910147414259E-01
 cg2d: Sum(rhs),rhsMax =  -4.53572858197226E-03  1.90916130477526E-01
 cg2d: Sum(rhs),rhsMax =  -4.53609103922730E-03  1.90922115491232E-01
 cg2d: Sum(rhs),rhsMax =  -4.53645220686224E-03  1.90928102456174E-01
 cg2d: Sum(rhs),rhsMax =  -4.53681208630632E-03  1.90934091373138E-01
 cg2d: Sum(rhs),rhsMax =  -4.53717067853299E-03  1.90940082242919E-01
 cg2d: Sum(rhs),rhsMax =  -4.53752798486655E-03  1.90946075066297E-01
 cg2d: Sum(rhs),rhsMax =  -4.53788400707085E-03  1.90952069844061E-01
 cg2d: Sum(rhs),rhsMax =  -4.53823874565166E-03  1.90958066576986E-01
 cg2d: Sum(rhs),rhsMax =  -4.53859220247376E-03  1.90964065265849E-01
 cg2d: Sum(rhs),rhsMax =  -4.53894437903803E-03  1.90970065911424E-01
 cg2d: Sum(rhs),rhsMax =  -4.53929527666545E-03  1.90976068514470E-01
 cg2d: Sum(rhs),rhsMax =  -4.53964489666807E-03  1.90982073075748E-01
 cg2d: Sum(rhs),rhsMax =  -4.53999324093944E-03  1.90988079596005E-01
 cg2d: Sum(rhs),rhsMax =  -4.54034031025435E-03  1.90994088075999E-01
 cg2d: Sum(rhs),rhsMax =  -4.54068610659655E-03  1.91000098516462E-01
 cg2d: Sum(rhs),rhsMax =  -4.54103063167948E-03  1.91006110918141E-01
 cg2d: Sum(rhs),rhsMax =  -4.54137388711349E-03  1.91012125281761E-01
 cg2d: Sum(rhs),rhsMax =  -4.54171587405284E-03  1.91018141608059E-01
 cg2d: Sum(rhs),rhsMax =  -4.54205659430493E-03  1.91024159897759E-01
 cg2d: Sum(rhs),rhsMax =  -4.54239605013342E-03  1.91030180151581E-01
 cg2d: Sum(rhs),rhsMax =  -4.54273424274498E-03  1.91036202370238E-01
 cg2d: Sum(rhs),rhsMax =  -4.54307117393425E-03  1.91042226554449E-01
 cg2d: Sum(rhs),rhsMax =  -4.54340684497928E-03  1.91048252704910E-01
 cg2d: Sum(rhs),rhsMax =  -4.54374125826393E-03  1.91054280822323E-01
 cg2d: Sum(rhs),rhsMax =  -4.54407441573421E-03  1.91060310907389E-01
 cg2d: Sum(rhs),rhsMax =  -4.54440631837843E-03  1.91066342960798E-01
 cg2d: Sum(rhs),rhsMax =  -4.54473696914538E-03  1.91072376983236E-01
 cg2d: Sum(rhs),rhsMax =  -4.54506636918163E-03  1.91078412975383E-01
 cg2d: Sum(rhs),rhsMax =  -4.54539452093653E-03  1.91084450937917E-01
 cg2d: Sum(rhs),rhsMax =  -4.54572142573023E-03  1.91090490871513E-01
 cg2d: Sum(rhs),rhsMax =  -4.54604708567772E-03  1.91096532776840E-01
 cg2d: Sum(rhs),rhsMax =  -4.54637150290150E-03  1.91102576654555E-01
 cg2d: Sum(rhs),rhsMax =  -4.54669468003806E-03  1.91108622505319E-01
 cg2d: Sum(rhs),rhsMax =  -4.54701661823350E-03  1.91114670329786E-01
 cg2d: Sum(rhs),rhsMax =  -4.54733732021457E-03  1.91120720128606E-01
 cg2d: Sum(rhs),rhsMax =  -4.54765678767175E-03  1.91126771902423E-01
 cg2d: Sum(rhs),rhsMax =  -4.54797502293143E-03  1.91132825651873E-01
(PID.TID 0000.0001)      cg2d_init_res =   5.62952991495326E-04
(PID.TID 0000.0001)      cg2d_iters(min,last) =      -1      73
(PID.TID 0000.0001)      cg2d_last_res =   9.55500102247528E-08
(PID.TID 0000.0001) // =======================================================
(PID.TID 0000.0001) // Begin MONITOR dynamic field statistics
(PID.TID 0000.0001) // =======================================================
(PID.TID 0000.0001) %MON time_tsnumber                =                 12240
(PID.TID 0000.0001) %MON time_secondsf                =   1.4688000000000E+07
(PID.TID 0000.0001) %MON dynstat_eta_max              =   2.7592765357850E-01
(PID.TID 0000.0001) %MON dynstat_eta_min              =  -9.4694259883025E-02
(PID.TID 0000.0001) %MON dynstat_eta_mean             =   4.3445499531530E-06
(PID.TID 0000.0001) %MON dynstat_eta_sd               =   1.0956687140651E-01
(PID.TID 0000.0001) %MON dynstat_eta_del2             =   2.9556195574053E-05
(PID.TID 0000.0001) %MON dynstat_uvel_max             =   1.4448127000384E-01
(PID.TID 0000.0001) %MON dynstat_uvel_min             =  -1.0371821408285E-01
(PID.TID 0000.0001) %MON dynstat_uvel_mean            =  -2.0598350384868E-08
(PID.TID 0000.0001) %MON dynstat_uvel_sd              =   4.5112167817714E-02
(PID.TID 0000.0001) %MON dynstat_uvel_del2            =   6.8254848215383E-05
(PID.TID 0000.0001) %MON dynstat_vvel_max             =   8.6457653718963E-02
(PID.TID 0000.0001) %MON dynstat_vvel_min             =  -1.1625332600545E-01
(PID.TID 0000.0001) %MON dynstat_vvel_mean            =   8.3533993191172E-08
(PID.TID 0000.0001) %MON dynstat_vvel_sd              =   4.0955333826834E-02
(PID.TID 0000.0001) %MON dynstat_vvel_del2            =   4.0728834815090E-05
(PID.TID 0000.0001) %MON dynstat_wvel_max             =   1.6218457238283E-08
(PID.TID 0000.0001) %MON dynstat_wvel_min             =  -5.9066178550711E-09
(PID.TID 0000.0001) %MON dynstat_wvel_mean            =   7.4148682769090E-21
(PID.TID 0000.0001) %MON dynstat_wvel_sd              =   5.5189535987468E-09
(PID.TID 0000.0001) %MON dynstat_wvel_del2            =   1.8655859524268E-12
(PID.TID 0000.0001) %MON dynstat_theta_max            =   2.0000000000000E+01
(PID.TID 0000.0001) %MON dynstat_theta_min            =   2.0000000000000E+01
(PID.TID 0000.0001) %MON dynstat_theta_mean           =   2.0000000000000E+01
(PID.TID 0000.0001) %MON dynstat_theta_sd             =   3.8014036363165E-13
(PID.TID 0000.0001) %MON dynstat_theta_del2           =   0.0000000000000E+00
(PID.TID 0000.0001) %MON dynstat_salt_max             =   3.0000000000000E+01
(PID.TID 0000.0001) %MON dynstat_salt_min             =   3.0000000000000E+01
(PID.TID 0000.0001) %MON dynstat_salt_mean            =   2.9999999999999E+01
(PID.TID 0000.0001) %MON dynstat_salt_sd              =   5.5777604757167E-13
(PID.TID 0000.0001) %MON dynstat_salt_del2            =   0.0000000000000E+00
(PID.TID 0000.0001) %MON trAdv_CFL_u_max              =   8.6679207235190E-03
(PID.TID 0000.0001) %MON trAdv_CFL_v_max              =   6.9656558774504E-03
(PID.TID 0000.0001) %MON trAdv_CFL_w_max              =   4.2866139466259E-09
(PID.TID 0000.0001) %MON advcfl_uvel_max              =   8.6688762002304E-03
(PID.TID 0000.0001) %MON advcfl_vvel_max              =   6.9751995603270E-03
(PID.TID 0000.0001) %MON advcfl_wvel_max              =   7.7848594743758E-09
(PID.TID 0000.0001) %MON advcfl_W_hf_max              =   0.0000000000000E+00
(PID.TID 0000.0001) %MON pe_b_mean                    =   1.2307839266473E-05
(PID.TID 0000.0001) %MON ke_max                       =   1.0450977660677E-02
(PID.TID 0000.0001) %MON ke_mean                      =   1.8220901452968E-03
(PID.TID 0000.0001) %MON ke_vol                       =   6.8893493896486E+15
(PID.TID 0000.0001) %MON vort_r_min                   =  -1.0346828034392E-06
(PID.TID 0000.0001) %MON vort_r_max                   =   3.1220969879427E-06
(PID.TID 0000.0001) %MON vort_a_mean                  =   1.0600000000000E-04
(PID.TID 0000.0001) %MON vort_a_sd                    =   3.5606446051094E-06
(PID.TID 0000.0001) %MON vort_p_mean                  =   1.1652272308690E-04
(PID.TID 0000.0001) %MON vort_p_sd                    =   4.1787699926189E-05
(PID.TID 0000.0001) %MON surfExpan_theta_mean         =   1.4830258502722E-19
(PID.TID 0000.0001) %MON surfExpan_salt_mean          =   2.2245324594729E-19
(PID.TID 0000.0001) // =======================================================
(PID.TID 0000.0001) // End MONITOR dynamic field statistics
(PID.TID 0000.0001) // =======================================================
 cg2d: Sum(rhs),rhsMax =  -4.54829202798519E-03  1.91138881377589E-01
 cg2d: Sum(rhs),rhsMax =  -4.54860780505284E-03  1.91144939080209E-01
 cg2d: Sum(rhs),rhsMax =  -4.54892235690077E-03  1.91150998760349E-01
 cg2d: Sum(rhs),rhsMax =  -4.54923568493449E-03  1.91157060418632E-01
 cg2d: Sum(rhs),rhsMax =  -4.54954779209099E-03  1.91163124055677E-01
 cg2d: Sum(rhs),rhsMax =  -4.54985868057293E-03  1.91169189672093E-01
 cg2d: Sum(rhs),rhsMax =  -4.55016835250025E-03  1.91175257268483E-01
 cg2d: Sum(rhs),rhsMax =  -4.55047681072625E-03  1.91181326845450E-01
 cg2d: Sum(rhs),rhsMax =  -4.55078405658505E-03  1.91187398403594E-01
 cg2d: Sum(rhs),rhsMax =  -4.55109009358669E-03  1.91193471943501E-01
 cg2d: Sum(rhs),rhsMax =  -4.55139492375095E-03  1.91199547465762E-01
 cg2d: Sum(rhs),rhsMax =  -4.55169854970796E-03  1.91205624970959E-01
 cg2d: Sum(rhs),rhsMax =  -4.55200097369471E-03  1.91211704459668E-01
 cg2d: Sum(rhs),rhsMax =  -4.55230219827996E-03  1.91217785932464E-01
 cg2d: Sum(rhs),rhsMax =  -4.55260222635523E-03  1.91223869389907E-01
 cg2d: Sum(rhs),rhsMax =  -4.55290106031533E-03  1.91229954832574E-01
 cg2d: Sum(rhs),rhsMax =  -4.55319870257320E-03  1.91236042261017E-01
 cg2d: Sum(rhs),rhsMax =  -4.55349515573250E-03  1.91242131675786E-01
 cg2d: Sum(rhs),rhsMax =  -4.55379042322316E-03  1.91248223077434E-01
 cg2d: Sum(rhs),rhsMax =  -4.55408450694827E-03  1.91254316466505E-01
 cg2d: Sum(rhs),rhsMax =  -4.55437741000841E-03  1.91260411843542E-01
 cg2d: Sum(rhs),rhsMax =  -4.55466913514912E-03  1.91266509209074E-01
 cg2d: Sum(rhs),rhsMax =  -4.55495968478482E-03  1.91272608563637E-01
 cg2d: Sum(rhs),rhsMax =  -4.55524906216850E-03  1.91278709907752E-01
 cg2d: Sum(rhs),rhsMax =  -4.55553726968032E-03  1.91284813241945E-01
 cg2d: Sum(rhs),rhsMax =  -4.55582431091665E-03  1.91290918566726E-01
 cg2d: Sum(rhs),rhsMax =  -4.55611018816694E-03  1.91297025882607E-01
 cg2d: Sum(rhs),rhsMax =  -4.55639490465087E-03  1.91303135190107E-01
 cg2d: Sum(rhs),rhsMax =  -4.55667846300311E-03  1.91309246489708E-01
 cg2d: Sum(rhs),rhsMax =  -4.55696086618350E-03  1.91315359781923E-01
 cg2d: Sum(rhs),rhsMax =  -4.55724211713996E-03  1.91321475067239E-01
 cg2d: Sum(rhs),rhsMax =  -4.55752221974907E-03  1.91327592346145E-01
 cg2d: Sum(rhs),rhsMax =  -4.55780117630585E-03  1.91333711619119E-01
 cg2d: Sum(rhs),rhsMax =  -4.55807898989036E-03  1.91339832886647E-01
 cg2d: Sum(rhs),rhsMax =  -4.55835566399178E-03  1.91345956149201E-01
 cg2d: Sum(rhs),rhsMax =  -4.55863120157535E-03  1.91352081407246E-01
 cg2d: Sum(rhs),rhsMax =  -4.55890560570554E-03  1.91358208661252E-01
 cg2d: Sum(rhs),rhsMax =  -4.55917887945312E-03  1.91364337911675E-01
 cg2d: Sum(rhs),rhsMax =  -4.55945102631419E-03  1.91370469158973E-01
 cg2d: Sum(rhs),rhsMax =  -4.55972204917881E-03  1.91376602403590E-01
 cg2d: Sum(rhs),rhsMax =  -4.55999195169646E-03  1.91382737645978E-01
 cg2d: Sum(rhs),rhsMax =  -4.56026073716811E-03  1.91388874886578E-01
 cg2d: Sum(rhs),rhsMax =  -4.56052840859052E-03  1.91395014125820E-01
 cg2d: Sum(rhs),rhsMax =  -4.56079496973831E-03  1.91401155364145E-01
 cg2d: Sum(rhs),rhsMax =  -4.56106042366915E-03  1.91407298601969E-01
 cg2d: Sum(rhs),rhsMax =  -4.56132477385309E-03  1.91413443839724E-01
 cg2d: Sum(rhs),rhsMax =  -4.56158802383645E-03  1.91419591077818E-01
 cg2d: Sum(rhs),rhsMax =  -4.56185017638306E-03  1.91425740316676E-01
 cg2d: Sum(rhs),rhsMax =  -4.56211123582121E-03  1.91431891556698E-01
 cg2d: Sum(rhs),rhsMax =  -4.56237120536884E-03  1.91438044798286E-01
 cg2d: Sum(rhs),rhsMax =  -4.56263008849253E-03  1.91444200041845E-01
 cg2d: Sum(rhs),rhsMax =  -4.56288788907218E-03  1.91450357287759E-01
 cg2d: Sum(rhs),rhsMax =  -4.56314461027739E-03  1.91456516536435E-01
 cg2d: Sum(rhs),rhsMax =  -4.56340025586236E-03  1.91462677788238E-01
 cg2d: Sum(rhs),rhsMax =  -4.56365482969929E-03  1.91468841043564E-01
 cg2d: Sum(rhs),rhsMax =  -4.56390833504052E-03  1.91475006302779E-01
 cg2d: Sum(rhs),rhsMax =  -4.56416077577975E-03  1.91481173566255E-01
 cg2d: Sum(rhs),rhsMax =  -4.56441215543625E-03  1.91487342834362E-01
 cg2d: Sum(rhs),rhsMax =  -4.56466247787716E-03  1.91493514107457E-01
 cg2d: Sum(rhs),rhsMax =  -4.56491174683404E-03  1.91499687385902E-01
 cg2d: Sum(rhs),rhsMax =  -4.56515996603829E-03  1.91505862670042E-01
 cg2d: Sum(rhs),rhsMax =  -4.56540713941253E-03  1.91512039960235E-01
 cg2d: Sum(rhs),rhsMax =  -4.56565327051029E-03  1.91518219256810E-01
 cg2d: Sum(rhs),rhsMax =  -4.56589836378676E-03  1.91524400560116E-01
 cg2d: Sum(rhs),rhsMax =  -4.56614242231162E-03  1.91530583870484E-01
 cg2d: Sum(rhs),rhsMax =  -4.56638545082495E-03  1.91536769188240E-01
 cg2d: Sum(rhs),rhsMax =  -4.56662745229652E-03  1.91542956513715E-01
 cg2d: Sum(rhs),rhsMax =  -4.56686843155710E-03  1.91549145847221E-01
 cg2d: Sum(rhs),rhsMax =  -4.56710839174886E-03  1.91555337189077E-01
 cg2d: Sum(rhs),rhsMax =  -4.56734733744311E-03  1.91561530539593E-01
 cg2d: Sum(rhs),rhsMax =  -4.56758527208410E-03  1.91567725899074E-01
 cg2d: Sum(rhs),rhsMax =  -4.56782220053925E-03  1.91573923267818E-01
(PID.TID 0000.0001)      cg2d_init_res =   5.57163516444444E-04
(PID.TID 0000.0001)      cg2d_iters(min,last) =      -1      73
(PID.TID 0000.0001)      cg2d_last_res =   9.07092917096014E-08
(PID.TID 0000.0001) // =======================================================
(PID.TID 0000.0001) // Begin MONITOR dynamic field statistics
(PID.TID 0000.0001) // =======================================================
(PID.TID 0000.0001) %MON time_tsnumber                =                 12312
(PID.TID 0000.0001) %MON time_secondsf                =   1.4774400000000E+07
(PID.TID 0000.0001) %MON dynstat_eta_max              =   2.7722470964827E-01
(PID.TID 0000.0001) %MON dynstat_eta_min              =  -9.5037719172041E-02
(PID.TID 0000.0001) %MON dynstat_eta_mean             =   4.3735035384269E-06
(PID.TID 0000.0001) %MON dynstat_eta_sd               =   1.1002266159215E-01
(PID.TID 0000.0001) %MON dynstat_eta_del2             =   2.9641933547123E-05
(PID.TID 0000.0001) %MON dynstat_uvel_max             =   1.4480735122418E-01
(PID.TID 0000.0001) %MON dynstat_uvel_min             =  -1.0418841104681E-01
(PID.TID 0000.0001) %MON dynstat_uvel_mean            =  -3.0981934131028E-08
(PID.TID 0000.0001) %MON dynstat_uvel_sd              =   4.5277552402409E-02
(PID.TID 0000.0001) %MON dynstat_uvel_del2            =   6.8357361076257E-05
(PID.TID 0000.0001) %MON dynstat_vvel_max             =   8.6924737955906E-02
(PID.TID 0000.0001) %MON dynstat_vvel_min             =  -1.1680657062434E-01
(PID.TID 0000.0001) %MON dynstat_vvel_mean            =   8.5366311708828E-08
(PID.TID 0000.0001) %MON dynstat_vvel_sd              =   4.1134817697357E-02
(PID.TID 0000.0001) %MON dynstat_vvel_del2            =   4.0699090050062E-05
(PID.TID 0000.0001) %MON dynstat_wvel_max             =   1.6083320052130E-08
(PID.TID 0000.0001) %MON dynstat_wvel_min             =  -5.6901510525495E-09
(PID.TID 0000.0001) %MON dynstat_wvel_mean            =   1.3577980805874E-20
(PID.TID 0000.0001) %MON dynstat_wvel_sd              =   5.5087694060232E-09
(PID.TID 0000.0001) %MON dynstat_wvel_del2            =   1.8520734232420E-12
(PID.TID 0000.0001) %MON dynstat_theta_max            =   2.0000000000000E+01
(PID.TID 0000.0001) %MON dynstat_theta_min            =   2.0000000000000E+01
(PID.TID 0000.0001) %MON dynstat_theta_mean           =   2.0000000000000E+01
(PID.TID 0000.0001) %MON dynstat_theta_sd             =   3.8014036363165E-13
(PID.TID 0000.0001) %MON dynstat_theta_del2           =   0.0000000000000E+00
(PID.TID 0000.0001) %MON dynstat_salt_max             =   3.0000000000000E+01
(PID.TID 0000.0001) %MON dynstat_salt_min             =   3.0000000000000E+01
(PID.TID 0000.0001) %MON dynstat_salt_mean            =   2.9999999999999E+01
(PID.TID 0000.0001) %MON dynstat_salt_sd              =   5.5777604757167E-13
(PID.TID 0000.0001) %MON dynstat_salt_del2            =   0.0000000000000E+00
(PID.TID 0000.0001) %MON trAdv_CFL_u_max              =   8.6874814152685E-03
(PID.TID 0000.0001) %MON trAdv_CFL_v_max              =   6.9988083009088E-03
(PID.TID 0000.0001) %MON trAdv_CFL_w_max              =   4.2509337942212E-09
(PID.TID 0000.0001) %MON advcfl_uvel_max              =   8.6884410734506E-03
(PID.TID 0000.0001) %MON advcfl_vvel_max              =   7.0083942374604E-03
(PID.TID 0000.0001) %MON advcfl_wvel_max              =   7.7199936250225E-09
(PID.TID 0000.0001) %MON advcfl_W_hf_max              =   0.0000000000000E+00
(PID.TID 0000.0001) %MON pe_b_mean                    =   1.2410451679160E-05
(PID.TID 0000.0001) %MON ke_max                       =   1.0498472146440E-02
(PID.TID 0000.0001) %MON ke_mean                      =   1.8366586935799E-03
(PID.TID 0000.0001) %MON ke_vol                       =   6.8893493896486E+15
(PID.TID 0000.0001) %MON vort_r_min                   =  -1.0339766084783E-06
(PID.TID 0000.0001) %MON vort_r_max                   =   3.1287453724458E-06
(PID.TID 0000.0001) %MON vort_a_mean                  =   1.0600000000000E-04
(PID.TID 0000.0001) %MON vort_a_sd                    =   3.5608502570801E-06
(PID.TID 0000.0001) %MON vort_p_mean                  =   1.1652272308690E-04
(PID.TID 0000.0001) %MON vort_p_sd                    =   4.1787707993603E-05
(PID.TID 0000.0001) %MON surfExpan_theta_mean         =   2.7157448635585E-19
(PID.TID 0000.0001) %MON surfExpan_salt_mean          =   4.0735320302095E-19
(PID.TID 0000.0001) // =======================================================
(PID.TID 0000.0001) // End MONITOR dynamic field statistics
(PID.TID 0000.0001) // =======================================================
 cg2d: Sum(rhs),rhsMax =  -4.56805812661095E-03  1.91580122646133E-01
 cg2d: Sum(rhs),rhsMax =  -4.56829305413539E-03  1.91586324034296E-01
 cg2d: Sum(rhs),rhsMax =  -4.56852698719817E-03  1.91592527432600E-01
 cg2d: Sum(rhs),rhsMax =  -4.56875993015541E-03  1.91598732841333E-01
 cg2d: Sum(rhs),rhsMax =  -4.56899188671529E-03  1.91604940260767E-01
 cg2d: Sum(rhs),rhsMax =  -4.56922286173481E-03  1.91611149691176E-01
 cg2d: Sum(rhs),rhsMax =  -4.56945285914194E-03  1.91617361132826E-01
 cg2d: Sum(rhs),rhsMax =  -4.56968188275577E-03  1.91623574585990E-01
 cg2d: Sum(rhs),rhsMax =  -4.56990993717299E-03  1.91629790050919E-01
 cg2d: Sum(rhs),rhsMax =  -4.57013702667129E-03  1.91636007527871E-01
 cg2d: Sum(rhs),rhsMax =  -4.57036315538693E-03  1.91642227017097E-01
 cg2d: Sum(rhs),rhsMax =  -4.57058832744576E-03  1.91648448518843E-01
 cg2d: Sum(rhs),rhsMax =  -4.57081254742977E-03  1.91654672033346E-01
 cg2d: Sum(rhs),rhsMax =  -4.57103581941892E-03  1.91660897560848E-01
 cg2d: Sum(rhs),rhsMax =  -4.57125814836713E-03  1.91667125101576E-01
 cg2d: Sum(rhs),rhsMax =  -4.57147953799000E-03  1.91673354655759E-01
 cg2d: Sum(rhs),rhsMax =  -4.57169999316892E-03  1.91679586223618E-01
 cg2d: Sum(rhs),rhsMax =  -4.57191951770298E-03  1.91685819805379E-01
 cg2d: Sum(rhs),rhsMax =  -4.57213811682241E-03  1.91692055401249E-01
 cg2d: Sum(rhs),rhsMax =  -4.57235579451146E-03  1.91698293011432E-01
 cg2d: Sum(rhs),rhsMax =  -4.57257255543392E-03  1.91704532636139E-01
 cg2d: Sum(rhs),rhsMax =  -4.57278840416600E-03  1.91710774275571E-01
 cg2d: Sum(rhs),rhsMax =  -4.57300334457759E-03  1.91717017929916E-01
 cg2d: Sum(rhs),rhsMax =  -4.57321738170028E-03  1.91723263599373E-01
 cg2d: Sum(rhs),rhsMax =  -4.57343052027489E-03  1.91729511284122E-01
 cg2d: Sum(rhs),rhsMax =  -4.57364276465698E-03  1.91735760984346E-01
 cg2d: Sum(rhs),rhsMax =  -4.57385411962373E-03  1.91742012700227E-01
 cg2d: Sum(rhs),rhsMax =  -4.57406458962924E-03  1.91748266431925E-01
 cg2d: Sum(rhs),rhsMax =  -4.57427417914065E-03  1.91754522179619E-01
 cg2d: Sum(rhs),rhsMax =  -4.57448289322318E-03  1.91760779943468E-01
 cg2d: Sum(rhs),rhsMax =  -4.57469073566184E-03  1.91767039723630E-01
 cg2d: Sum(rhs),rhsMax =  -4.57489771233417E-03  1.91773301520259E-01
 cg2d: Sum(rhs),rhsMax =  -4.57510382667462E-03  1.91779565333504E-01
 cg2d: Sum(rhs),rhsMax =  -4.57530908441546E-03  1.91785831163512E-01
 cg2d: Sum(rhs),rhsMax =  -4.57551348995841E-03  1.91792099010422E-01
 cg2d: Sum(rhs),rhsMax =  -4.57571704806174E-03  1.91798368874367E-01
 cg2d: Sum(rhs),rhsMax =  -4.57591976372971E-03  1.91804640755483E-01
 cg2d: Sum(rhs),rhsMax =  -4.57612164115536E-03  1.91810914653896E-01
 cg2d: Sum(rhs),rhsMax =  -4.57632268555443E-03  1.91817190569727E-01
 cg2d: Sum(rhs),rhsMax =  -4.57652290182492E-03  1.91823468503090E-01
 cg2d: Sum(rhs),rhsMax =  -4.57672229453859E-03  1.91829748454104E-01
 cg2d: Sum(rhs),rhsMax =  -4.57692086877452E-03  1.91836030422874E-01
 cg2d: Sum(rhs),rhsMax =  -4.57711862945511E-03  1.91842314409508E-01
 cg2d: Sum(rhs),rhsMax =  -4.57731558124671E-03  1.91848600414096E-01
 cg2d: Sum(rhs),rhsMax =  -4.57751172901037E-03  1.91854888436742E-01
 cg2d: Sum(rhs),rhsMax =  -4.57770707791413E-03  1.91861178477533E-01
 cg2d: Sum(rhs),rhsMax =  -4.57790163274562E-03  1.91867470536559E-01
 cg2d: Sum(rhs),rhsMax =  -4.57809539864585E-03  1.91873764613894E-01
 cg2d: Sum(rhs),rhsMax =  -4.57828838007383E-03  1.91880060709615E-01
 cg2d: Sum(rhs),rhsMax =  -4.57848058231771E-03  1.91886358823804E-01
 cg2d: Sum(rhs),rhsMax =  -4.57867201047580E-03  1.91892658956519E-01
 cg2d: Sum(rhs),rhsMax =  -4.57886266934297E-03  1.91898961107828E-01
 cg2d: Sum(rhs),rhsMax =  -4.57905256402738E-03  1.91905265277787E-01
 cg2d: Sum(rhs),rhsMax =  -4.57924169948519E-03  1.91911571466454E-01
 cg2d: Sum(rhs),rhsMax =  -4.57943008130281E-03  1.91917879673874E-01
 cg2d: Sum(rhs),rhsMax =  -4.57961771387443E-03  1.91924189900097E-01
 cg2d: Sum(rhs),rhsMax =  -4.57980460237787E-03  1.91930502145161E-01
 cg2d: Sum(rhs),rhsMax =  -4.57999075240377E-03  1.91936816409104E-01
 cg2d: Sum(rhs),rhsMax =  -4.58017616825021E-03  1.91943132691955E-01
 cg2d: Sum(rhs),rhsMax =  -4.58036085576151E-03  1.91949450993743E-01
 cg2d: Sum(rhs),rhsMax =  -4.58054481949310E-03  1.91955771314489E-01
 cg2d: Sum(rhs),rhsMax =  -4.58072806516622E-03  1.91962093654213E-01
 cg2d: Sum(rhs),rhsMax =  -4.58091059764038E-03  1.91968418012932E-01
 cg2d: Sum(rhs),rhsMax =  -4.58109242174540E-03  1.91974744390655E-01
 cg2d: Sum(rhs),rhsMax =  -4.58127354337882E-03  1.91981072787377E-01
 cg2d: Sum(rhs),rhsMax =  -4.58145396701647E-03  1.91987403203109E-01
 cg2d: Sum(rhs),rhsMax =  -4.58163369812322E-03  1.91993735637840E-01
 cg2d: Sum(rhs),rhsMax =  -4.58181274190913E-03  1.92000070091571E-01
 cg2d: Sum(rhs),rhsMax =  -4.58199110395949E-03  1.92006406564280E-01
 cg2d: Sum(rhs),rhsMax =  -4.58216878957499E-03  1.92012745055952E-01
 cg2d: Sum(rhs),rhsMax =  -4.58234580346251E-03  1.92019085566568E-01
 cg2d: Sum(rhs),rhsMax =  -4.58252215107446E-03  1.92025428096094E-01
(PID.TID 0000.0001)      cg2d_init_res =   5.51360775076815E-04
(PID.TID 0000.0001)      cg2d_iters(min,last) =      -1      73
(PID.TID 0000.0001)      cg2d_last_res =   8.67633417848924E-08
(PID.TID 0000.0001) // =======================================================
(PID.TID 0000.0001) // Begin MONITOR dynamic field statistics
(PID.TID 0000.0001) // =======================================================
(PID.TID 0000.0001) %MON time_tsnumber                =                 12384
(PID.TID 0000.0001) %MON time_secondsf                =   1.4860800000000E+07
(PID.TID 0000.0001) %MON dynstat_eta_max              =   2.7851813788323E-01
(PID.TID 0000.0001) %MON dynstat_eta_min              =  -9.5380369641340E-02
(PID.TID 0000.0001) %MON dynstat_eta_mean             =   4.3978633153527E-06
(PID.TID 0000.0001) %MON dynstat_eta_sd               =   1.1047844834838E-01
(PID.TID 0000.0001) %MON dynstat_eta_del2             =   2.9726937629447E-05
(PID.TID 0000.0001) %MON dynstat_uvel_max             =   1.4513695337801E-01
(PID.TID 0000.0001) %MON dynstat_uvel_min             =  -1.0465056935302E-01
(PID.TID 0000.0001) %MON dynstat_uvel_mean            =  -4.0520666681315E-08
(PID.TID 0000.0001) %MON dynstat_uvel_sd              =   4.5443543613666E-02
(PID.TID 0000.0001) %MON dynstat_uvel_del2            =   6.8459188073670E-05
(PID.TID 0000.0001) %MON dynstat_vvel_max             =   8.7398991673385E-02
(PID.TID 0000.0001) %MON dynstat_vvel_min             =  -1.1735791197784E-01
(PID.TID 0000.0001) %MON dynstat_vvel_mean            =   8.8390967570275E-08
(PID.TID 0000.0001) %MON dynstat_vvel_sd              =   4.1312965887703E-02
(PID.TID 0000.0001) %MON dynstat_vvel_del2            =   4.0671540716161E-05
(PID.TID 0000.0001) %MON dynstat_wvel_max             =   1.5940419711405E-08
(PID.TID 0000.0001) %MON dynstat_wvel_min             =  -5.9420324309031E-09
(PID.TID 0000.0001) %MON dynstat_wvel_mean            =  -1.1728620089949E-20
(PID.TID 0000.0001) %MON dynstat_wvel_sd              =   5.4993180523283E-09
(PID.TID 0000.0001) %MON dynstat_wvel_del2            =   1.8381163430142E-12
(PID.TID 0000.0001) %MON dynstat_theta_max            =   2.0000000000000E+01
(PID.TID 0000.0001) %MON dynstat_theta_min            =   2.0000000000000E+01
(PID.TID 0000.0001) %MON dynstat_theta_mean           =   2.0000000000000E+01
(PID.TID 0000.0001) %MON dynstat_theta_sd             =   3.8014036363165E-13
(PID.TID 0000.0001) %MON dynstat_theta_del2           =   0.0000000000000E+00
(PID.TID 0000.0001) %MON dynstat_salt_max             =   3.0000000000000E+01
(PID.TID 0000.0001) %MON dynstat_salt_min             =   3.0000000000000E+01
(PID.TID 0000.0001) %MON dynstat_salt_mean            =   2.9999999999999E+01
(PID.TID 0000.0001) %MON dynstat_salt_sd              =   5.5777604757167E-13
(PID.TID 0000.0001) %MON dynstat_salt_del2            =   0.0000000000000E+00
(PID.TID 0000.0001) %MON trAdv_CFL_u_max              =   8.7072527671416E-03
(PID.TID 0000.0001) %MON trAdv_CFL_v_max              =   7.0318478803347E-03
(PID.TID 0000.0001) %MON trAdv_CFL_w_max              =   4.2131927846486E-09
(PID.TID 0000.0001) %MON advcfl_uvel_max              =   8.7082172026809E-03
(PID.TID 0000.0001) %MON advcfl_vvel_max              =   7.0414747186705E-03
(PID.TID 0000.0001) %MON advcfl_wvel_max              =   7.6514014614746E-09
(PID.TID 0000.0001) %MON advcfl_W_hf_max              =   0.0000000000000E+00
(PID.TID 0000.0001) %MON pe_b_mean                    =   1.2513489289066E-05
(PID.TID 0000.0001) %MON ke_max                       =   1.0546574043998E-02
(PID.TID 0000.0001) %MON ke_mean                      =   1.8512586061095E-03
(PID.TID 0000.0001) %MON ke_vol                       =   6.8893493896486E+15
(PID.TID 0000.0001) %MON vort_r_min                   =  -1.0328080923097E-06
(PID.TID 0000.0001) %MON vort_r_max                   =   3.1355007504304E-06
(PID.TID 0000.0001) %MON vort_a_mean                  =   1.0600000000000E-04
(PID.TID 0000.0001) %MON vort_a_sd                    =   3.5610572353509E-06
(PID.TID 0000.0001) %MON vort_p_mean                  =   1.1652272308690E-04
(PID.TID 0000.0001) %MON vort_p_sd                    =   4.1787718573606E-05
(PID.TID 0000.0001) %MON surfExpan_theta_mean         =  -2.3455236765181E-19
(PID.TID 0000.0001) %MON surfExpan_salt_mean          =  -3.5183486741314E-19
(PID.TID 0000.0001) // =======================================================
(PID.TID 0000.0001) // End MONITOR dynamic field statistics
(PID.TID 0000.0001) // =======================================================
 cg2d: Sum(rhs),rhsMax =  -4.58269783730066E-03  1.92031772644511E-01
 cg2d: Sum(rhs),rhsMax =  -4.58287286834821E-03  1.92038119211772E-01
 cg2d: Sum(rhs),rhsMax =  -4.58304724899695E-03  1.92044467797846E-01
 cg2d: Sum(rhs),rhsMax =  -4.58322098428966E-03  1.92050818402683E-01
 cg2d: Sum(rhs),rhsMax =  -4.58339408007853E-03  1.92057171026239E-01
 cg2d: Sum(rhs),rhsMax =  -4.58356654130147E-03  1.92063525668459E-01
 cg2d: Sum(rhs),rhsMax =  -4.58373837349431E-03  1.92069882329284E-01
 cg2d: Sum(rhs),rhsMax =  -4.58390958191451E-03  1.92076241008657E-01
 cg2d: Sum(rhs),rhsMax =  -4.58408017199209E-03  1.92082601706509E-01
 cg2d: Sum(rhs),rhsMax =  -4.58425014894675E-03  1.92088964422763E-01
 cg2d: Sum(rhs),rhsMax =  -4.58441951848900E-03  1.92095329157353E-01
 cg2d: Sum(rhs),rhsMax =  -4.58458828532965E-03  1.92101695910195E-01
 cg2d: Sum(rhs),rhsMax =  -4.58475645570161E-03  1.92108064681207E-01
 cg2d: Sum(rhs),rhsMax =  -4.58492403493890E-03  1.92114435470296E-01
 cg2d: Sum(rhs),rhsMax =  -4.58509102779179E-03  1.92120808277378E-01
 cg2d: Sum(rhs),rhsMax =  -4.58525744031440E-03  1.92127183102347E-01
 cg2d: Sum(rhs),rhsMax =  -4.58542327789255E-03  1.92133559945110E-01
 cg2d: Sum(rhs),rhsMax =  -4.58558854570587E-03  1.92139938805554E-01
 cg2d: Sum(rhs),rhsMax =  -4.58575324950345E-03  1.92146319683568E-01
 cg2d: Sum(rhs),rhsMax =  -4.58591739443531E-03  1.92152702579042E-01
 cg2d: Sum(rhs),rhsMax =  -4.58608098587441E-03  1.92159087491857E-01
 cg2d: Sum(rhs),rhsMax =  -4.58624402984155E-03  1.92165474421884E-01
 cg2d: Sum(rhs),rhsMax =  -4.58640653140580E-03  1.92171863369002E-01
 cg2d: Sum(rhs),rhsMax =  -4.58656849630026E-03  1.92178254333072E-01
 cg2d: Sum(rhs),rhsMax =  -4.58672993028858E-03  1.92184647313964E-01
 cg2d: Sum(rhs),rhsMax =  -4.58689083833373E-03  1.92191042311530E-01
 cg2d: Sum(rhs),rhsMax =  -4.58705122596414E-03  1.92197439325625E-01
 cg2d: Sum(rhs),rhsMax =  -4.58721109936210E-03  1.92203838356109E-01
 cg2d: Sum(rhs),rhsMax =  -4.58737046355273E-03  1.92210239402816E-01
 cg2d: Sum(rhs),rhsMax =  -4.58752932399678E-03  1.92216642465597E-01
 cg2d: Sum(rhs),rhsMax =  -4.58768768670060E-03  1.92223047544281E-01
 cg2d: Sum(rhs),rhsMax =  -4.58784555683698E-03  1.92229454638707E-01
 cg2d: Sum(rhs),rhsMax =  -4.58800294017978E-03  1.92235863748698E-01
 cg2d: Sum(rhs),rhsMax =  -4.58815984252324E-03  1.92242274874083E-01
 cg2d: Sum(rhs),rhsMax =  -4.58831626849711E-03  1.92248688014679E-01
 cg2d: Sum(rhs),rhsMax =  -4.58847222540739E-03  1.92255103170303E-01
 cg2d: Sum(rhs),rhsMax =  -4.58862771739609E-03  1.92261520340764E-01
 cg2d: Sum(rhs),rhsMax =  -4.58878275050604E-03  1.92267939525872E-01
 cg2d: Sum(rhs),rhsMax =  -4.58893733034956E-03  1.92274360725426E-01
 cg2d: Sum(rhs),rhsMax =  -4.58909146298427E-03  1.92280783939224E-01
 cg2d: Sum(rhs),rhsMax =  -4.58924515400986E-03  1.92287209167066E-01
 cg2d: Sum(rhs),rhsMax =  -4.58939840863020E-03  1.92293636408730E-01
 cg2d: Sum(rhs),rhsMax =  -4.58955123249960E-03  1.92300065664007E-01
 cg2d: Sum(rhs),rhsMax =  -4.58970363131093E-03  1.92306496932690E-01
 cg2d: Sum(rhs),rhsMax =  -4.58985561064783E-03  1.92312930214533E-01
 cg2d: Sum(rhs),rhsMax =  -4.59000717668621E-03  1.92319365509323E-01
 cg2d: Sum(rhs),rhsMax =  -4.59015833485851E-03  1.92325802816825E-01
 cg2d: Sum(rhs),rhsMax =  -4.59030909049500E-03  1.92332242136798E-01
 cg2d: Sum(rhs),rhsMax =  -4.59045945004537E-03  1.92338683469009E-01
 cg2d: Sum(rhs),rhsMax =  -4.59060941851220E-03  1.92345126813209E-01
 cg2d: Sum(rhs),rhsMax =  -4.59075900147702E-03  1.92351572169147E-01
 cg2d: Sum(rhs),rhsMax =  -4.59090820548051E-03  1.92358019536570E-01
 cg2d: Sum(rhs),rhsMax =  -4.59105703568909E-03  1.92364468915224E-01
 cg2d: Sum(rhs),rhsMax =  -4.59120549796800E-03  1.92370920304844E-01
 cg2d: Sum(rhs),rhsMax =  -4.59135359805056E-03  1.92377373705163E-01
 cg2d: Sum(rhs),rhsMax =  -4.59150134180946E-03  1.92383829115911E-01
 cg2d: Sum(rhs),rhsMax =  -4.59164873445494E-03  1.92390286536813E-01
 cg2d: Sum(rhs),rhsMax =  -4.59179578186926E-03  1.92396745967592E-01
 cg2d: Sum(rhs),rhsMax =  -4.59194249025738E-03  1.92403207407959E-01
 cg2d: Sum(rhs),rhsMax =  -4.59208886500604E-03  1.92409670857631E-01
 cg2d: Sum(rhs),rhsMax =  -4.59223491261576E-03  1.92416136316319E-01
 cg2d: Sum(rhs),rhsMax =  -4.59238063805810E-03  1.92422603783719E-01
 cg2d: Sum(rhs),rhsMax =  -4.59252604769907E-03  1.92429073259532E-01
 cg2d: Sum(rhs),rhsMax =  -4.59267114656071E-03  1.92435544743460E-01
 cg2d: Sum(rhs),rhsMax =  -4.59281594098894E-03  1.92442018235188E-01
 cg2d: Sum(rhs),rhsMax =  -4.59296043673189E-03  1.92448493734403E-01
 cg2d: Sum(rhs),rhsMax =  -4.59310463949603E-03  1.92454971240793E-01
 cg2d: Sum(rhs),rhsMax =  -4.59324855503099E-03  1.92461450754030E-01
 cg2d: Sum(rhs),rhsMax =  -4.59339218940864E-03  1.92467932273787E-01
 cg2d: Sum(rhs),rhsMax =  -4.59353554793383E-03  1.92474415799740E-01
 cg2d: Sum(rhs),rhsMax =  -4.59367863749630E-03  1.92480901331552E-01
 cg2d: Sum(rhs),rhsMax =  -4.59382146291162E-03  1.92487388868886E-01
(PID.TID 0000.0001)      cg2d_init_res =   5.45708246762346E-04
(PID.TID 0000.0001)      cg2d_iters(min,last) =      -1      73
(PID.TID 0000.0001)      cg2d_last_res =   8.41420579021856E-08
(PID.TID 0000.0001) // =======================================================
(PID.TID 0000.0001) // Begin MONITOR dynamic field statistics
(PID.TID 0000.0001) // =======================================================
(PID.TID 0000.0001) %MON time_tsnumber                =                 12456
(PID.TID 0000.0001) %MON time_secondsf                =   1.4947200000000E+07
(PID.TID 0000.0001) %MON dynstat_eta_max              =   2.7980774420253E-01
(PID.TID 0000.0001) %MON dynstat_eta_min              =  -9.5720787758575E-02
(PID.TID 0000.0001) %MON dynstat_eta_mean             =   4.4192841545645E-06
(PID.TID 0000.0001) %MON dynstat_eta_sd               =   1.1093405506572E-01
(PID.TID 0000.0001) %MON dynstat_eta_del2             =   2.9811335134714E-05
(PID.TID 0000.0001) %MON dynstat_uvel_max             =   1.4547073527901E-01
(PID.TID 0000.0001) %MON dynstat_uvel_min             =  -1.0510803779979E-01
(PID.TID 0000.0001) %MON dynstat_uvel_mean            =  -4.8908085657169E-08
(PID.TID 0000.0001) %MON dynstat_uvel_sd              =   4.5610533332973E-02
(PID.TID 0000.0001) %MON dynstat_uvel_del2            =   6.8560713300964E-05
(PID.TID 0000.0001) %MON dynstat_vvel_max             =   8.7879566968677E-02
(PID.TID 0000.0001) %MON dynstat_vvel_min             =  -1.1790592679066E-01
(PID.TID 0000.0001) %MON dynstat_vvel_mean            =   9.2427485050460E-08
(PID.TID 0000.0001) %MON dynstat_vvel_sd              =   4.1489309754925E-02
(PID.TID 0000.0001) %MON dynstat_vvel_del2            =   4.0646448061151E-05
(PID.TID 0000.0001) %MON dynstat_wvel_max             =   1.5794401083258E-08
(PID.TID 0000.0001) %MON dynstat_wvel_min             =  -6.1881335242651E-09
(PID.TID 0000.0001) %MON dynstat_wvel_mean            =   2.6377943464063E-21
(PID.TID 0000.0001) %MON dynstat_wvel_sd              =   5.4898584282199E-09
(PID.TID 0000.0001) %MON dynstat_wvel_del2            =   1.8238979847760E-12
(PID.TID 0000.0001) %MON dynstat_theta_max            =   2.0000000000000E+01
(PID.TID 0000.0001) %MON dynstat_theta_min            =   2.0000000000000E+01
(PID.TID 0000.0001) %MON dynstat_theta_mean           =   2.0000000000000E+01
(PID.TID 0000.0001) %MON dynstat_theta_sd             =   3.8014036363165E-13
(PID.TID 0000.0001) %MON dynstat_theta_del2           =   0.0000000000000E+00
(PID.TID 0000.0001) %MON dynstat_salt_max             =   3.0000000000000E+01
(PID.TID 0000.0001) %MON dynstat_salt_min             =   3.0000000000000E+01
(PID.TID 0000.0001) %MON dynstat_salt_mean            =   2.9999999999999E+01
(PID.TID 0000.0001) %MON dynstat_salt_sd              =   5.5777604757167E-13
(PID.TID 0000.0001) %MON dynstat_salt_del2            =   0.0000000000000E+00
(PID.TID 0000.0001) %MON trAdv_CFL_u_max              =   8.7272743649102E-03
(PID.TID 0000.0001) %MON trAdv_CFL_v_max              =   7.0646892920722E-03
(PID.TID 0000.0001) %MON trAdv_CFL_w_max              =   4.1784013821365E-09
(PID.TID 0000.0001) %MON advcfl_uvel_max              =   8.7282441167406E-03
(PID.TID 0000.0001) %MON advcfl_vvel_max              =   7.0743556074395E-03
(PID.TID 0000.0001) %MON advcfl_wvel_max              =   7.5813125199638E-09
(PID.TID 0000.0001) %MON advcfl_W_hf_max              =   0.0000000000000E+00
(PID.TID 0000.0001) %MON pe_b_mean                    =   1.2616911913750E-05
(PID.TID 0000.0001) %MON ke_max                       =   1.0595373621131E-02
(PID.TID 0000.0001) %MON ke_mean                      =   1.8658879376280E-03
(PID.TID 0000.0001) %MON ke_vol                       =   6.8893493896486E+15
(PID.TID 0000.0001) %MON vort_r_min                   =  -1.0312092258834E-06
(PID.TID 0000.0001) %MON vort_r_max                   =   3.1423748152750E-06
(PID.TID 0000.0001) %MON vort_a_mean                  =   1.0600000000000E-04
(PID.TID 0000.0001) %MON vort_a_sd                    =   3.5612659277005E-06
(PID.TID 0000.0001) %MON vort_p_mean                  =   1.1652272308690E-04
(PID.TID 0000.0001) %MON vort_p_sd                    =   4.1787732252186E-05
(PID.TID 0000.0001) %MON surfExpan_theta_mean         =   5.2807851918462E-20
(PID.TID 0000.0001) %MON surfExpan_salt_mean          =   7.9205619840650E-20
(PID.TID 0000.0001) // =======================================================
(PID.TID 0000.0001) // End MONITOR dynamic field statistics
(PID.TID 0000.0001) // =======================================================
 cg2d: Sum(rhs),rhsMax =  -4.59396403003049E-03  1.92493878411397E-01
 cg2d: Sum(rhs),rhsMax =  -4.59410634509916E-03  1.92500369958740E-01
 cg2d: Sum(rhs),rhsMax =  -4.59424841410629E-03  1.92506863510564E-01
 cg2d: Sum(rhs),rhsMax =  -4.59439024276183E-03  1.92513359066510E-01
 cg2d: Sum(rhs),rhsMax =  -4.59453183683711E-03  1.92519856626220E-01
 cg2d: Sum(rhs),rhsMax =  -4.59467320180684E-03  1.92526356189336E-01
 cg2d: Sum(rhs),rhsMax =  -4.59481434454642E-03  1.92532857755479E-01
 cg2d: Sum(rhs),rhsMax =  -4.59495527003261E-03  1.92539361324290E-01
 cg2d: Sum(rhs),rhsMax =  -4.59509598464188E-03  1.92545866895381E-01
 cg2d: Sum(rhs),rhsMax =  -4.59523649405141E-03  1.92552374468378E-01
 cg2d: Sum(rhs),rhsMax =  -4.59537680417034E-03  1.92558884042897E-01
 cg2d: Sum(rhs),rhsMax =  -4.59551692054234E-03  1.92565395618545E-01
 cg2d: Sum(rhs),rhsMax =  -4.59565685018810E-03  1.92571909194930E-01
 cg2d: Sum(rhs),rhsMax =  -4.59579659747179E-03  1.92578424771664E-01
 cg2d: Sum(rhs),rhsMax =  -4.59593616953030E-03  1.92584942348327E-01
 cg2d: Sum(rhs),rhsMax =  -4.59607557207043E-03  1.92591461924534E-01
 cg2d: Sum(rhs),rhsMax =  -4.59621481116426E-03  1.92597983499864E-01
 cg2d: Sum(rhs),rhsMax =  -4.59635389175631E-03  1.92604507073904E-01
 cg2d: Sum(rhs),rhsMax =  -4.59649282061007E-03  1.92611032646238E-01
 cg2d: Sum(rhs),rhsMax =  -4.59663160348136E-03  1.92617560216446E-01
 cg2d: Sum(rhs),rhsMax =  -4.59677024621196E-03  1.92624089784097E-01
 cg2d: Sum(rhs),rhsMax =  -4.59690875497750E-03  1.92630621348765E-01
 cg2d: Sum(rhs),rhsMax =  -4.59704713568975E-03  1.92637154910014E-01
 cg2d: Sum(rhs),rhsMax =  -4.59718539428769E-03  1.92643690467402E-01
 cg2d: Sum(rhs),rhsMax =  -4.59732353666839E-03  1.92650228020492E-01
 cg2d: Sum(rhs),rhsMax =  -4.59746156878566E-03  1.92656767568839E-01
 cg2d: Sum(rhs),rhsMax =  -4.59759949704709E-03  1.92663309111984E-01
 cg2d: Sum(rhs),rhsMax =  -4.59773732684014E-03  1.92669852649476E-01
 cg2d: Sum(rhs),rhsMax =  -4.59787506445838E-03  1.92676398180860E-01
 cg2d: Sum(rhs),rhsMax =  -4.59801271566930E-03  1.92682945705668E-01
 cg2d: Sum(rhs),rhsMax =  -4.59815028684257E-03  1.92689495223436E-01
 cg2d: Sum(rhs),rhsMax =  -4.59828778376381E-03  1.92696046733692E-01
 cg2d: Sum(rhs),rhsMax =  -4.59842521268603E-03  1.92702600235954E-01
 cg2d: Sum(rhs),rhsMax =  -4.59856257961442E-03  1.92709155729754E-01
 cg2d: Sum(rhs),rhsMax =  -4.59869988992870E-03  1.92715713214599E-01
 cg2d: Sum(rhs),rhsMax =  -4.59883715037538E-03  1.92722272690006E-01
 cg2d: Sum(rhs),rhsMax =  -4.59897436674218E-03  1.92728834155485E-01
 cg2d: Sum(rhs),rhsMax =  -4.59911154514378E-03  1.92735397610534E-01
 cg2d: Sum(rhs),rhsMax =  -4.59924869126147E-03  1.92741963054664E-01
 cg2d: Sum(rhs),rhsMax =  -4.59938581168632E-03  1.92748530487358E-01
 cg2d: Sum(rhs),rhsMax =  -4.59952291231816E-03  1.92755099908112E-01
 cg2d: Sum(rhs),rhsMax =  -4.59965999873356E-03  1.92761671316421E-01
 cg2d: Sum(rhs),rhsMax =  -4.59979707757734E-03  1.92768244711762E-01
 cg2d: Sum(rhs),rhsMax =  -4.59993415480031E-03  1.92774820093620E-01
 cg2d: Sum(rhs),rhsMax =  -4.60007123650064E-03  1.92781397461466E-01
 cg2d: Sum(rhs),rhsMax =  -4.60020832868823E-03  1.92787976814773E-01
 cg2d: Sum(rhs),rhsMax =  -4.60034543744573E-03  1.92794558153011E-01
 cg2d: Sum(rhs),rhsMax =  -4.60048256908217E-03  1.92801141475650E-01
 cg2d: Sum(rhs),rhsMax =  -4.60061972908748E-03  1.92807726782132E-01
 cg2d: Sum(rhs),rhsMax =  -4.60075692415387E-03  1.92814314071925E-01
 cg2d: Sum(rhs),rhsMax =  -4.60089416025660E-03  1.92820903344480E-01
 cg2d: Sum(rhs),rhsMax =  -4.60103144333651E-03  1.92827494599248E-01
 cg2d: Sum(rhs),rhsMax =  -4.60116878010120E-03  1.92834087835668E-01
 cg2d: Sum(rhs),rhsMax =  -4.60130617573168E-03  1.92840683053180E-01
 cg2d: Sum(rhs),rhsMax =  -4.60144363691585E-03  1.92847280251218E-01
 cg2d: Sum(rhs),rhsMax =  -4.60158116993916E-03  1.92853879429222E-01
 cg2d: Sum(rhs),rhsMax =  -4.60171878059994E-03  1.92860480586612E-01
 cg2d: Sum(rhs),rhsMax =  -4.60185647519066E-03  1.92867083722811E-01
 cg2d: Sum(rhs),rhsMax =  -4.60199425985528E-03  1.92873688837243E-01
 cg2d: Sum(rhs),rhsMax =  -4.60213214087083E-03  1.92880295929322E-01
 cg2d: Sum(rhs),rhsMax =  -4.60227012402331E-03  1.92886904998463E-01
 cg2d: Sum(rhs),rhsMax =  -4.60240821616789E-03  1.92893516044074E-01
 cg2d: Sum(rhs),rhsMax =  -4.60254642290626E-03  1.92900129065554E-01
 cg2d: Sum(rhs),rhsMax =  -4.60268475064684E-03  1.92906744062306E-01
 cg2d: Sum(rhs),rhsMax =  -4.60282320546753E-03  1.92913361033724E-01
 cg2d: Sum(rhs),rhsMax =  -4.60296179355530E-03  1.92919979979204E-01
 cg2d: Sum(rhs),rhsMax =  -4.60310052140534E-03  1.92926600898131E-01
 cg2d: Sum(rhs),rhsMax =  -4.60323939474029E-03  1.92933223789893E-01
 cg2d: Sum(rhs),rhsMax =  -4.60337842025751E-03  1.92939848653868E-01
 cg2d: Sum(rhs),rhsMax =  -4.60351760409761E-03  1.92946475489433E-01
 cg2d: Sum(rhs),rhsMax =  -4.60365695214703E-03  1.92953104295961E-01
 cg2d: Sum(rhs),rhsMax =  -4.60379647074329E-03  1.92959735072814E-01
(PID.TID 0000.0001)      cg2d_init_res =   5.40371475205262E-04
(PID.TID 0000.0001)      cg2d_iters(min,last) =      -1      73
(PID.TID 0000.0001)      cg2d_last_res =   8.31500279583394E-08
(PID.TID 0000.0001) // =======================================================
(PID.TID 0000.0001) // Begin MONITOR dynamic field statistics
(PID.TID 0000.0001) // =======================================================
(PID.TID 0000.0001) %MON time_tsnumber                =                 12528
(PID.TID 0000.0001) %MON time_secondsf                =   1.5033600000000E+07
(PID.TID 0000.0001) %MON dynstat_eta_max              =   2.8109330545013E-01
(PID.TID 0000.0001) %MON dynstat_eta_min              =  -9.6057686400031E-02
(PID.TID 0000.0001) %MON dynstat_eta_mean             =   4.4397480946906E-06
(PID.TID 0000.0001) %MON dynstat_eta_sd               =   1.1138925475128E-01
(PID.TID 0000.0001) %MON dynstat_eta_del2             =   2.9895263012889E-05
(PID.TID 0000.0001) %MON dynstat_uvel_max             =   1.4580928214200E-01
(PID.TID 0000.0001) %MON dynstat_uvel_min             =  -1.0556410389877E-01
(PID.TID 0000.0001) %MON dynstat_uvel_mean            =  -5.5894885267502E-08
(PID.TID 0000.0001) %MON dynstat_uvel_sd              =   4.5778837358402E-02
(PID.TID 0000.0001) %MON dynstat_uvel_del2            =   6.8662335826891E-05
(PID.TID 0000.0001) %MON dynstat_vvel_max             =   8.8365285980774E-02
(PID.TID 0000.0001) %MON dynstat_vvel_min             =  -1.1844924280664E-01
(PID.TID 0000.0001) %MON dynstat_vvel_mean            =   9.7261609469619E-08
(PID.TID 0000.0001) %MON dynstat_vvel_sd              =   4.1663459285500E-02
(PID.TID 0000.0001) %MON dynstat_vvel_del2            =   4.0623954639773E-05
(PID.TID 0000.0001) %MON dynstat_wvel_max             =   1.5663133009220E-08
(PID.TID 0000.0001) %MON dynstat_wvel_min             =  -6.4135043229908E-09
(PID.TID 0000.0001) %MON dynstat_wvel_mean            =  -1.3895015121711E-20
(PID.TID 0000.0001) %MON dynstat_wvel_sd              =   5.4795913800541E-09
(PID.TID 0000.0001) %MON dynstat_wvel_del2            =   1.8096439873348E-12
(PID.TID 0000.0001) %MON dynstat_theta_max            =   2.0000000000000E+01
(PID.TID 0000.0001) %MON dynstat_theta_min            =   2.0000000000000E+01
(PID.TID 0000.0001) %MON dynstat_theta_mean           =   2.0000000000000E+01
(PID.TID 0000.0001) %MON dynstat_theta_sd             =   3.8014036363165E-13
(PID.TID 0000.0001) %MON dynstat_theta_del2           =   0.0000000000000E+00
(PID.TID 0000.0001) %MON dynstat_salt_max             =   3.0000000000000E+01
(PID.TID 0000.0001) %MON dynstat_salt_min             =   3.0000000000000E+01
(PID.TID 0000.0001) %MON dynstat_salt_mean            =   2.9999999999999E+01
(PID.TID 0000.0001) %MON dynstat_salt_sd              =   5.5777604757167E-13
(PID.TID 0000.0001) %MON dynstat_salt_del2            =   0.0000000000000E+00
(PID.TID 0000.0001) %MON trAdv_CFL_u_max              =   8.7475813810862E-03
(PID.TID 0000.0001) %MON trAdv_CFL_v_max              =   7.0972502619898E-03
(PID.TID 0000.0001) %MON trAdv_CFL_w_max              =   4.1460507503282E-09
(PID.TID 0000.0001) %MON advcfl_uvel_max              =   8.7485569285202E-03
(PID.TID 0000.0001) %MON advcfl_vvel_max              =   7.1069545683986E-03
(PID.TID 0000.0001) %MON advcfl_wvel_max              =   7.5183038444258E-09
(PID.TID 0000.0001) %MON advcfl_W_hf_max              =   0.0000000000000E+00
(PID.TID 0000.0001) %MON pe_b_mean                    =   1.2720667203366E-05
(PID.TID 0000.0001) %MON ke_max                       =   1.0644952274448E-02
(PID.TID 0000.0001) %MON ke_mean                      =   1.8805444825604E-03
(PID.TID 0000.0001) %MON ke_vol                       =   6.8893493896486E+15
(PID.TID 0000.0001) %MON vort_r_min                   =  -1.0292206585845E-06
(PID.TID 0000.0001) %MON vort_r_max                   =   3.1493774369948E-06
(PID.TID 0000.0001) %MON vort_a_mean                  =   1.0600000000000E-04
(PID.TID 0000.0001) %MON vort_a_sd                    =   3.5614766890882E-06
(PID.TID 0000.0001) %MON vort_p_mean                  =   1.1652272308690E-04
(PID.TID 0000.0001) %MON vort_p_sd                    =   4.1787749505117E-05
(PID.TID 0000.0001) %MON surfExpan_theta_mean         =  -2.7790021148475E-19
(PID.TID 0000.0001) %MON surfExpan_salt_mean          =  -4.1684289600299E-19
(PID.TID 0000.0001) // =======================================================
(PID.TID 0000.0001) // End MONITOR dynamic field statistics
(PID.TID 0000.0001) // =======================================================
 cg2d: Sum(rhs),rhsMax =  -4.60393616617533E-03  1.92966367819366E-01
 cg2d: Sum(rhs),rhsMax =  -4.60407604482653E-03  1.92973002534976E-01
 cg2d: Sum(rhs),rhsMax =  -4.60421611264173E-03  1.92979639218996E-01
 cg2d: Sum(rhs),rhsMax =  -4.60435637624954E-03  1.92986277870783E-01
 cg2d: Sum(rhs),rhsMax =  -4.60449684163904E-03  1.92992918489684E-01
 cg2d: Sum(rhs),rhsMax =  -4.60463751529332E-03  1.92999561075048E-01
 cg2d: Sum(rhs),rhsMax =  -4.60477840352184E-03  1.93006205626210E-01
 cg2d: Sum(rhs),rhsMax =  -4.60491951213674E-03  1.93012852142512E-01
 cg2d: Sum(rhs),rhsMax =  -4.60506084733108E-03  1.93019500623285E-01
 cg2d: Sum(rhs),rhsMax =  -4.60520241636364E-03  1.93026151067862E-01
 cg2d: Sum(rhs),rhsMax =  -4.60534422473896E-03  1.93032803475562E-01
 cg2d: Sum(rhs),rhsMax =  -4.60548627886182E-03  1.93039457845715E-01
 cg2d: Sum(rhs),rhsMax =  -4.60562858524424E-03  1.93046114177637E-01
 cg2d: Sum(rhs),rhsMax =  -4.60577114994869E-03  1.93052772470642E-01
 cg2d: Sum(rhs),rhsMax =  -4.60591397954440E-03  1.93059432724034E-01
 cg2d: Sum(rhs),rhsMax =  -4.60605708014457E-03  1.93066094937127E-01
 cg2d: Sum(rhs),rhsMax =  -4.60620045822359E-03  1.93072759109221E-01
 cg2d: Sum(rhs),rhsMax =  -4.60634412028359E-03  1.93079425239615E-01
 cg2d: Sum(rhs),rhsMax =  -4.60648807199399E-03  1.93086093327604E-01
 cg2d: Sum(rhs),rhsMax =  -4.60663232030739E-03  1.93092763372480E-01
 cg2d: Sum(rhs),rhsMax =  -4.60677687141614E-03  1.93099435373527E-01
 cg2d: Sum(rhs),rhsMax =  -4.60692173153058E-03  1.93106109330032E-01
 cg2d: Sum(rhs),rhsMax =  -4.60706690705927E-03  1.93112785241274E-01
 cg2d: Sum(rhs),rhsMax =  -4.60721240486054E-03  1.93119463106527E-01
 cg2d: Sum(rhs),rhsMax =  -4.60735823039031E-03  1.93126142925065E-01
 cg2d: Sum(rhs),rhsMax =  -4.60750439087983E-03  1.93132824696157E-01
 cg2d: Sum(rhs),rhsMax =  -4.60765089216308E-03  1.93139508419067E-01
 cg2d: Sum(rhs),rhsMax =  -4.60779774095502E-03  1.93146194093054E-01
 cg2d: Sum(rhs),rhsMax =  -4.60794494318579E-03  1.93152881717374E-01
 cg2d: Sum(rhs),rhsMax =  -4.60809250595780E-03  1.93159571291282E-01
 cg2d: Sum(rhs),rhsMax =  -4.60824043508517E-03  1.93166262814027E-01
 cg2d: Sum(rhs),rhsMax =  -4.60838873743789E-03  1.93172956284855E-01
 cg2d: Sum(rhs),rhsMax =  -4.60853741925177E-03  1.93179651703008E-01
 cg2d: Sum(rhs),rhsMax =  -4.60868648679989E-03  1.93186349067725E-01
 cg2d: Sum(rhs),rhsMax =  -4.60883594653465E-03  1.93193048378236E-01
 cg2d: Sum(rhs),rhsMax =  -4.60898580514513E-03  1.93199749633772E-01
 cg2d: Sum(rhs),rhsMax =  -4.60913606874428E-03  1.93206452833568E-01
 cg2d: Sum(rhs),rhsMax =  -4.60928674373650E-03  1.93213157976836E-01
 cg2d: Sum(rhs),rhsMax =  -4.60943783692050E-03  1.93219865062803E-01
 cg2d: Sum(rhs),rhsMax =  -4.60958935457994E-03  1.93226574090677E-01
 cg2d: Sum(rhs),rhsMax =  -4.60974130325143E-03  1.93233285059678E-01
 cg2d: Sum(rhs),rhsMax =  -4.60989368916010E-03  1.93239997969010E-01
 cg2d: Sum(rhs),rhsMax =  -4.61004651876261E-03  1.93246712817878E-01
 cg2d: Sum(rhs),rhsMax =  -4.61019979916922E-03  1.93253429605484E-01
 cg2d: Sum(rhs),rhsMax =  -4.61035353631993E-03  1.93260148331022E-01
 cg2d: Sum(rhs),rhsMax =  -4.61050773671546E-03  1.93266868993681E-01
 cg2d: Sum(rhs),rhsMax =  -4.61066240698199E-03  1.93273591592659E-01
 cg2d: Sum(rhs),rhsMax =  -4.61081755345389E-03  1.93280316127142E-01
 cg2d: Sum(rhs),rhsMax =  -4.61097318228611E-03  1.93287042596307E-01
 cg2d: Sum(rhs),rhsMax =  -4.61112930108230E-03  1.93293770999334E-01
 cg2d: Sum(rhs),rhsMax =  -4.61128591550559E-03  1.93300501335395E-01
 cg2d: Sum(rhs),rhsMax =  -4.61144303205950E-03  1.93307233603667E-01
 cg2d: Sum(rhs),rhsMax =  -4.61160065746536E-03  1.93313967803315E-01
 cg2d: Sum(rhs),rhsMax =  -4.61175879830317E-03  1.93320703933501E-01
 cg2d: Sum(rhs),rhsMax =  -4.61191746094170E-03  1.93327441993386E-01
 cg2d: Sum(rhs),rhsMax =  -4.61207665213473E-03  1.93334181982125E-01
 cg2d: Sum(rhs),rhsMax =  -4.61223637777125E-03  1.93340923898874E-01
 cg2d: Sum(rhs),rhsMax =  -4.61239664556569E-03  1.93347667742780E-01
 cg2d: Sum(rhs),rhsMax =  -4.61255746108317E-03  1.93354413512989E-01
 cg2d: Sum(rhs),rhsMax =  -4.61271883101589E-03  1.93361161208638E-01
 cg2d: Sum(rhs),rhsMax =  -4.61288076242894E-03  1.93367910828876E-01
 cg2d: Sum(rhs),rhsMax =  -4.61304326111239E-03  1.93374662372828E-01
 cg2d: Sum(rhs),rhsMax =  -4.61320633416077E-03  1.93381415839624E-01
 cg2d: Sum(rhs),rhsMax =  -4.61336998828536E-03  1.93388171228399E-01
 cg2d: Sum(rhs),rhsMax =  -4.61353422958222E-03  1.93394928538271E-01
 cg2d: Sum(rhs),rhsMax =  -4.61369906472053E-03  1.93401687768366E-01
 cg2d: Sum(rhs),rhsMax =  -4.61386450048802E-03  1.93408448917794E-01
 cg2d: Sum(rhs),rhsMax =  -4.61403054299780E-03  1.93415211985670E-01
 cg2d: Sum(rhs),rhsMax =  -4.61419719904396E-03  1.93421976971101E-01
 cg2d: Sum(rhs),rhsMax =  -4.61436447563289E-03  1.93428743873195E-01
 cg2d: Sum(rhs),rhsMax =  -4.61453237886618E-03  1.93435512691057E-01
 cg2d: Sum(rhs),rhsMax =  -4.61470091565962E-03  1.93442283423781E-01
(PID.TID 0000.0001)      cg2d_init_res =   5.35494877679789E-04
(PID.TID 0000.0001)      cg2d_iters(min,last) =      -1      73
(PID.TID 0000.0001)      cg2d_last_res =   8.38154350724057E-08
(PID.TID 0000.0001) // =======================================================
(PID.TID 0000.0001) // Begin MONITOR dynamic field statistics
(PID.TID 0000.0001) // =======================================================
(PID.TID 0000.0001) %MON time_tsnumber                =                 12600
(PID.TID 0000.0001) %MON time_secondsf                =   1.5120000000000E+07
(PID.TID 0000.0001) %MON dynstat_eta_max              =   2.8237457539100E-01
(PID.TID 0000.0001) %MON dynstat_eta_min              =  -9.6389947130701E-02
(PID.TID 0000.0001) %MON dynstat_eta_mean             =   4.4614241002580E-06
(PID.TID 0000.0001) %MON dynstat_eta_sd               =   1.1184377764155E-01
(PID.TID 0000.0001) %MON dynstat_eta_del2             =   2.9978865281548E-05
(PID.TID 0000.0001) %MON dynstat_uvel_max             =   1.4615310333885E-01
(PID.TID 0000.0001) %MON dynstat_uvel_min             =  -1.0602182805866E-01
(PID.TID 0000.0001) %MON dynstat_uvel_mean            =  -6.1298254900103E-08
(PID.TID 0000.0001) %MON dynstat_uvel_sd              =   4.5948680627877E-02
(PID.TID 0000.0001) %MON dynstat_uvel_del2            =   6.8764463376073E-05
(PID.TID 0000.0001) %MON dynstat_vvel_max             =   8.8854699651730E-02
(PID.TID 0000.0001) %MON dynstat_vvel_min             =  -1.1898654627619E-01
(PID.TID 0000.0001) %MON dynstat_vvel_mean            =   1.0265554123335E-07
(PID.TID 0000.0001) %MON dynstat_vvel_sd              =   4.1835120060443E-02
(PID.TID 0000.0001) %MON dynstat_vvel_del2            =   4.0604073561420E-05
(PID.TID 0000.0001) %MON dynstat_wvel_max             =   1.5534619335085E-08
(PID.TID 0000.0001) %MON dynstat_wvel_min             =  -6.6061889630510E-09
(PID.TID 0000.0001) %MON dynstat_wvel_mean            =  -7.0220702734029E-21
(PID.TID 0000.0001) %MON dynstat_wvel_sd              =   5.4677561703437E-09
(PID.TID 0000.0001) %MON dynstat_wvel_del2            =   1.7955253887338E-12
(PID.TID 0000.0001) %MON dynstat_theta_max            =   2.0000000000000E+01
(PID.TID 0000.0001) %MON dynstat_theta_min            =   2.0000000000000E+01
(PID.TID 0000.0001) %MON dynstat_theta_mean           =   2.0000000000000E+01
(PID.TID 0000.0001) %MON dynstat_theta_sd             =   3.8014036363165E-13
(PID.TID 0000.0001) %MON dynstat_theta_del2           =   0.0000000000000E+00
(PID.TID 0000.0001) %MON dynstat_salt_max             =   3.0000000000000E+01
(PID.TID 0000.0001) %MON dynstat_salt_min             =   3.0000000000000E+01
(PID.TID 0000.0001) %MON dynstat_salt_mean            =   2.9999999999999E+01
(PID.TID 0000.0001) %MON dynstat_salt_sd              =   5.5777604757167E-13
(PID.TID 0000.0001) %MON dynstat_salt_del2            =   0.0000000000000E+00
(PID.TID 0000.0001) %MON trAdv_CFL_u_max              =   8.7682044394010E-03
(PID.TID 0000.0001) %MON trAdv_CFL_v_max              =   7.1294520167991E-03
(PID.TID 0000.0001) %MON trAdv_CFL_w_max              =   4.1169641638966E-09
(PID.TID 0000.0001) %MON advcfl_uvel_max              =   8.7691862003308E-03
(PID.TID 0000.0001) %MON advcfl_vvel_max              =   7.1391927765714E-03
(PID.TID 0000.0001) %MON advcfl_wvel_max              =   7.4566172808409E-09
(PID.TID 0000.0001) %MON advcfl_W_hf_max              =   0.0000000000000E+00
(PID.TID 0000.0001) %MON pe_b_mean                    =   1.2824692152644E-05
(PID.TID 0000.0001) %MON ke_max                       =   1.0695382183404E-02
(PID.TID 0000.0001) %MON ke_mean                      =   1.8952258218821E-03
(PID.TID 0000.0001) %MON ke_vol                       =   6.8893493896486E+15
(PID.TID 0000.0001) %MON vort_r_min                   =  -1.0268905243804E-06
(PID.TID 0000.0001) %MON vort_r_max                   =   3.1565166065814E-06
(PID.TID 0000.0001) %MON vort_a_mean                  =   1.0600000000000E-04
(PID.TID 0000.0001) %MON vort_a_sd                    =   3.5616898343422E-06
(PID.TID 0000.0001) %MON vort_p_mean                  =   1.1652272308690E-04
(PID.TID 0000.0001) %MON vort_p_sd                    =   4.1787770686932E-05
(PID.TID 0000.0001) %MON surfExpan_theta_mean         =  -1.4043008731177E-19
(PID.TID 0000.0001) %MON surfExpan_salt_mean          =  -2.1064592045958E-19
(PID.TID 0000.0001) // =======================================================
(PID.TID 0000.0001) // End MONITOR dynamic field statistics
(PID.TID 0000.0001) // =======================================================
 cg2d: Sum(rhs),rhsMax =  -4.61487009237053E-03  1.93449056070463E-01
 cg2d: Sum(rhs),rhsMax =  -4.61503991558084E-03  1.93455830630195E-01
 cg2d: Sum(rhs),rhsMax =  -4.61521039233131E-03  1.93462607102063E-01
 cg2d: Sum(rhs),rhsMax =  -4.61538152871342E-03  1.93469385485156E-01
 cg2d: Sum(rhs),rhsMax =  -4.61555333146184E-03  1.93476165778549E-01
 cg2d: Sum(rhs),rhsMax =  -4.61572580695112E-03  1.93482947981320E-01
 cg2d: Sum(rhs),rhsMax =  -4.61589896188158E-03  1.93489732092548E-01
 cg2d: Sum(rhs),rhsMax =  -4.61607280346040E-03  1.93496518111296E-01
 cg2d: Sum(rhs),rhsMax =  -4.61624733737965E-03  1.93503306036634E-01
 cg2d: Sum(rhs),rhsMax =  -4.61642257088499E-03  1.93510095867622E-01
 cg2d: Sum(rhs),rhsMax =  -4.61659851033499E-03  1.93516887603325E-01
 cg2d: Sum(rhs),rhsMax =  -4.61677516212945E-03  1.93523681242791E-01
 cg2d: Sum(rhs),rhsMax =  -4.61695253325852E-03  1.93530476785078E-01
 cg2d: Sum(rhs),rhsMax =  -4.61713063022695E-03  1.93537274229237E-01
 cg2d: Sum(rhs),rhsMax =  -4.61730945962029E-03  1.93544073574306E-01
 cg2d: Sum(rhs),rhsMax =  -4.61748902802511E-03  1.93550874819337E-01
 cg2d: Sum(rhs),rhsMax =  -4.61766934207011E-03  1.93557677963354E-01
 cg2d: Sum(rhs),rhsMax =  -4.61785040837978E-03  1.93564483005404E-01
 cg2d: Sum(rhs),rhsMax =  -4.61803223361062E-03  1.93571289944517E-01
 cg2d: Sum(rhs),rhsMax =  -4.61821482426501E-03  1.93578098779712E-01
 cg2d: Sum(rhs),rhsMax =  -4.61839818664952E-03  1.93584909510026E-01
 cg2d: Sum(rhs),rhsMax =  -4.61858232792297E-03  1.93591722134471E-01
 cg2d: Sum(rhs),rhsMax =  -4.61876725436071E-03  1.93598536652066E-01
 cg2d: Sum(rhs),rhsMax =  -4.61895297273791E-03  1.93605353061826E-01
 cg2d: Sum(rhs),rhsMax =  -4.61913948946878E-03  1.93612171362762E-01
 cg2d: Sum(rhs),rhsMax =  -4.61932681144927E-03  1.93618991553882E-01
 cg2d: Sum(rhs),rhsMax =  -4.61951494498622E-03  1.93625813634190E-01
 cg2d: Sum(rhs),rhsMax =  -4.61970389685298E-03  1.93632637602679E-01
 cg2d: Sum(rhs),rhsMax =  -4.61989367324426E-03  1.93639463458352E-01
 cg2d: Sum(rhs),rhsMax =  -4.62008428156395E-03  1.93646291200207E-01
 cg2d: Sum(rhs),rhsMax =  -4.62027572788890E-03  1.93653120827221E-01
 cg2d: Sum(rhs),rhsMax =  -4.62046801844463E-03  1.93659952338392E-01
 cg2d: Sum(rhs),rhsMax =  -4.62066116036994E-03  1.93666785732703E-01
 cg2d: Sum(rhs),rhsMax =  -4.62085515996697E-03  1.93673621009123E-01
 cg2d: Sum(rhs),rhsMax =  -4.62105002408898E-03  1.93680458166636E-01
 cg2d: Sum(rhs),rhsMax =  -4.62124575936735E-03  1.93687297204215E-01
 cg2d: Sum(rhs),rhsMax =  -4.62144237156791E-03  1.93694138120830E-01
 cg2d: Sum(rhs),rhsMax =  -4.62163986816209E-03  1.93700980915444E-01
 cg2d: Sum(rhs),rhsMax =  -4.62183825564710E-03  1.93707825587023E-01
 cg2d: Sum(rhs),rhsMax =  -4.62203753968842E-03  1.93714672134519E-01
 cg2d: Sum(rhs),rhsMax =  -4.62223772791213E-03  1.93721520556897E-01
 cg2d: Sum(rhs),rhsMax =  -4.62243882654801E-03  1.93728370853106E-01
 cg2d: Sum(rhs),rhsMax =  -4.62264084140836E-03  1.93735223022093E-01
 cg2d: Sum(rhs),rhsMax =  -4.62284377979643E-03  1.93742077062809E-01
 cg2d: Sum(rhs),rhsMax =  -4.62304764823715E-03  1.93748932974191E-01
 cg2d: Sum(rhs),rhsMax =  -4.62325245264196E-03  1.93755790755182E-01
 cg2d: Sum(rhs),rhsMax =  -4.62345820007393E-03  1.93762650404712E-01
 cg2d: Sum(rhs),rhsMax =  -4.62366489679116E-03  1.93769511921722E-01
 cg2d: Sum(rhs),rhsMax =  -4.62387254959014E-03  1.93776375305138E-01
 cg2d: Sum(rhs),rhsMax =  -4.62408116422748E-03  1.93783240553881E-01
 cg2d: Sum(rhs),rhsMax =  -4.62429074849044E-03  1.93790107666874E-01
 cg2d: Sum(rhs),rhsMax =  -4.62450130718525E-03  1.93796976643046E-01
 cg2d: Sum(rhs),rhsMax =  -4.62471284808814E-03  1.93803847481306E-01
 cg2d: Sum(rhs),rhsMax =  -4.62492537694759E-03  1.93810720180561E-01
 cg2d: Sum(rhs),rhsMax =  -4.62513890053149E-03  1.93817594739731E-01
 cg2d: Sum(rhs),rhsMax =  -4.62535342497963E-03  1.93824471157714E-01
 cg2d: Sum(rhs),rhsMax =  -4.62556895718012E-03  1.93831349433414E-01
 cg2d: Sum(rhs),rhsMax =  -4.62578550319177E-03  1.93838229565736E-01
 cg2d: Sum(rhs),rhsMax =  -4.62600306953043E-03  1.93845111553569E-01
 cg2d: Sum(rhs),rhsMax =  -4.62622166274685E-03  1.93851995395809E-01
 cg2d: Sum(rhs),rhsMax =  -4.62644128863024E-03  1.93858881091344E-01
 cg2d: Sum(rhs),rhsMax =  -4.62666195424767E-03  1.93865768639065E-01
 cg2d: Sum(rhs),rhsMax =  -4.62688366598457E-03  1.93872658037851E-01
 cg2d: Sum(rhs),rhsMax =  -4.62710642956737E-03  1.93879549286578E-01
 cg2d: Sum(rhs),rhsMax =  -4.62733025136743E-03  1.93886442384129E-01
 cg2d: Sum(rhs),rhsMax =  -4.62755513822526E-03  1.93893337329375E-01
 cg2d: Sum(rhs),rhsMax =  -4.62778109618744E-03  1.93900234121185E-01
 cg2d: Sum(rhs),rhsMax =  -4.62800813115528E-03  1.93907132758430E-01
 cg2d: Sum(rhs),rhsMax =  -4.62823625001145E-03  1.93914033239968E-01
 cg2d: Sum(rhs),rhsMax =  -4.62846545857430E-03  1.93920935564660E-01
 cg2d: Sum(rhs),rhsMax =  -4.62869576330538E-03  1.93927839731365E-01
 cg2d: Sum(rhs),rhsMax =  -4.62892717035635E-03  1.93934745738937E-01
(PID.TID 0000.0001)      cg2d_init_res =   5.31183035843887E-04
(PID.TID 0000.0001)      cg2d_iters(min,last) =      -1      73
(PID.TID 0000.0001)      cg2d_last_res =   8.56174298230964E-08
(PID.TID 0000.0001) // =======================================================
(PID.TID 0000.0001) // Begin MONITOR dynamic field statistics
(PID.TID 0000.0001) // =======================================================
(PID.TID 0000.0001) %MON time_tsnumber                =                 12672
(PID.TID 0000.0001) %MON time_secondsf                =   1.5206400000000E+07
(PID.TID 0000.0001) %MON dynstat_eta_max              =   2.8365129209661E-01
(PID.TID 0000.0001) %MON dynstat_eta_min              =  -9.6716642684034E-02
(PID.TID 0000.0001) %MON dynstat_eta_mean             =   4.4866342807992E-06
(PID.TID 0000.0001) %MON dynstat_eta_sd               =   1.1229732050046E-01
(PID.TID 0000.0001) %MON dynstat_eta_del2             =   3.0062290108791E-05
(PID.TID 0000.0001) %MON dynstat_uvel_max             =   1.4650263118576E-01
(PID.TID 0000.0001) %MON dynstat_uvel_min             =  -1.0648389626822E-01
(PID.TID 0000.0001) %MON dynstat_uvel_mean            =  -6.5007958088288E-08
(PID.TID 0000.0001) %MON dynstat_uvel_sd              =   4.6120186928413E-02
(PID.TID 0000.0001) %MON dynstat_uvel_del2            =   6.8867506281897E-05
(PID.TID 0000.0001) %MON dynstat_vvel_max             =   8.9346158375577E-02
(PID.TID 0000.0001) %MON dynstat_vvel_min             =  -1.1951658670446E-01
(PID.TID 0000.0001) %MON dynstat_vvel_mean            =   1.0835917476971E-07
(PID.TID 0000.0001) %MON dynstat_vvel_sd              =   4.2004105291970E-02
(PID.TID 0000.0001) %MON dynstat_vvel_del2            =   4.0586682555889E-05
(PID.TID 0000.0001) %MON dynstat_wvel_max             =   1.5423005354824E-08
(PID.TID 0000.0001) %MON dynstat_wvel_min             =  -6.7601852404187E-09
(PID.TID 0000.0001) %MON dynstat_wvel_mean            =  -6.0399876626131E-21
(PID.TID 0000.0001) %MON dynstat_wvel_sd              =   5.4537179246539E-09
(PID.TID 0000.0001) %MON dynstat_wvel_del2            =   1.7816203566333E-12
(PID.TID 0000.0001) %MON dynstat_theta_max            =   2.0000000000000E+01
(PID.TID 0000.0001) %MON dynstat_theta_min            =   2.0000000000000E+01
(PID.TID 0000.0001) %MON dynstat_theta_mean           =   2.0000000000000E+01
(PID.TID 0000.0001) %MON dynstat_theta_sd             =   3.8014036363165E-13
(PID.TID 0000.0001) %MON dynstat_theta_del2           =   0.0000000000000E+00
(PID.TID 0000.0001) %MON dynstat_salt_max             =   3.0000000000000E+01
(PID.TID 0000.0001) %MON dynstat_salt_min             =   3.0000000000000E+01
(PID.TID 0000.0001) %MON dynstat_salt_mean            =   2.9999999999999E+01
(PID.TID 0000.0001) %MON dynstat_salt_sd              =   5.5777604757167E-13
(PID.TID 0000.0001) %MON dynstat_salt_del2            =   0.0000000000000E+00
(PID.TID 0000.0001) %MON trAdv_CFL_u_max              =   8.7891695412142E-03
(PID.TID 0000.0001) %MON trAdv_CFL_v_max              =   7.1612195704661E-03
(PID.TID 0000.0001) %MON trAdv_CFL_w_max              =   4.0873922156512E-09
(PID.TID 0000.0001) %MON advcfl_uvel_max              =   8.7901578711458E-03
(PID.TID 0000.0001) %MON advcfl_vvel_max              =   7.1709952022674E-03
(PID.TID 0000.0001) %MON advcfl_wvel_max              =   7.4030425703153E-09
(PID.TID 0000.0001) %MON advcfl_W_hf_max              =   0.0000000000000E+00
(PID.TID 0000.0001) %MON pe_b_mean                    =   1.2928915045419E-05
(PID.TID 0000.0001) %MON ke_max                       =   1.0746726085353E-02
(PID.TID 0000.0001) %MON ke_mean                      =   1.9099293698588E-03
(PID.TID 0000.0001) %MON ke_vol                       =   6.8893493896486E+15
(PID.TID 0000.0001) %MON vort_r_min                   =  -1.0242731091905E-06
(PID.TID 0000.0001) %MON vort_r_max                   =   3.1637984102011E-06
(PID.TID 0000.0001) %MON vort_a_mean                  =   1.0600000000000E-04
(PID.TID 0000.0001) %MON vort_a_sd                    =   3.5619056314871E-06
(PID.TID 0000.0001) %MON vort_p_mean                  =   1.1652272308690E-04
(PID.TID 0000.0001) %MON vort_p_sd                    =   4.1787796025381E-05
(PID.TID 0000.0001) %MON surfExpan_theta_mean         =  -1.2075847482467E-19
(PID.TID 0000.0001) %MON surfExpan_salt_mean          =  -1.8113408057414E-19
(PID.TID 0000.0001) // =======================================================
(PID.TID 0000.0001) // End MONITOR dynamic field statistics
(PID.TID 0000.0001) // =======================================================
 cg2d: Sum(rhs),rhsMax =  -4.62915968631294E-03  1.93941653586228E-01
 cg2d: Sum(rhs),rhsMax =  -4.62939331667902E-03  1.93948563272085E-01
 cg2d: Sum(rhs),rhsMax =  -4.62962806852579E-03  1.93955474795346E-01
 cg2d: Sum(rhs),rhsMax =  -4.62986394696697E-03  1.93962388154863E-01
 cg2d: Sum(rhs),rhsMax =  -4.63010095906201E-03  1.93969303349463E-01
 cg2d: Sum(rhs),rhsMax =  -4.63033911036108E-03  1.93976220377988E-01
 cg2d: Sum(rhs),rhsMax =  -4.63057840716311E-03  1.93983139239267E-01
 cg2d: Sum(rhs),rhsMax =  -4.63081885574864E-03  1.93990059932131E-01
 cg2d: Sum(rhs),rhsMax =  -4.63106046230477E-03  1.93996982455399E-01
 cg2d: Sum(rhs),rhsMax =  -4.63130323206470E-03  1.94003906807902E-01
 cg2d: Sum(rhs),rhsMax =  -4.63154717176911E-03  1.94010832988449E-01
 cg2d: Sum(rhs),rhsMax =  -4.63179228697315E-03  1.94017760995863E-01
 cg2d: Sum(rhs),rhsMax =  -4.63203858424629E-03  1.94024690828953E-01
 cg2d: Sum(rhs),rhsMax =  -4.63228606932880E-03  1.94031622486535E-01
 cg2d: Sum(rhs),rhsMax =  -4.63253474827966E-03  1.94038555967406E-01
 cg2d: Sum(rhs),rhsMax =  -4.63278462654838E-03  1.94045491270375E-01
 cg2d: Sum(rhs),rhsMax =  -4.63303571043910E-03  1.94052428394237E-01
 cg2d: Sum(rhs),rhsMax =  -4.63328800593433E-03  1.94059367337799E-01
 cg2d: Sum(rhs),rhsMax =  -4.63354151848840E-03  1.94066308099846E-01
 cg2d: Sum(rhs),rhsMax =  -4.63379625461665E-03  1.94073250679168E-01
 cg2d: Sum(rhs),rhsMax =  -4.63405221952140E-03  1.94080195074559E-01
 cg2d: Sum(rhs),rhsMax =  -4.63430941926940E-03  1.94087141284799E-01
 cg2d: Sum(rhs),rhsMax =  -4.63456785939713E-03  1.94094089308671E-01
 cg2d: Sum(rhs),rhsMax =  -4.63482754586485E-03  1.94101039144957E-01
 cg2d: Sum(rhs),rhsMax =  -4.63508848452900E-03  1.94107990792423E-01
 cg2d: Sum(rhs),rhsMax =  -4.63535068070932E-03  1.94114944249851E-01
 cg2d: Sum(rhs),rhsMax =  -4.63561414051976E-03  1.94121899516003E-01
 cg2d: Sum(rhs),rhsMax =  -4.63587886924803E-03  1.94128856589651E-01
 cg2d: Sum(rhs),rhsMax =  -4.63614487239061E-03  1.94135815469558E-01
 cg2d: Sum(rhs),rhsMax =  -4.63641215597664E-03  1.94142776154474E-01
 cg2d: Sum(rhs),rhsMax =  -4.63668072545936E-03  1.94149738643172E-01
 cg2d: Sum(rhs),rhsMax =  -4.63695058633796E-03  1.94156702934389E-01
 cg2d: Sum(rhs),rhsMax =  -4.63722174374958E-03  1.94163669026887E-01
 cg2d: Sum(rhs),rhsMax =  -4.63749420341967E-03  1.94170636919413E-01
 cg2d: Sum(rhs),rhsMax =  -4.63776797125055E-03  1.94177606610709E-01
 cg2d: Sum(rhs),rhsMax =  -4.63804305165220E-03  1.94184578099514E-01
 cg2d: Sum(rhs),rhsMax =  -4.63831945070466E-03  1.94191551384578E-01
 cg2d: Sum(rhs),rhsMax =  -4.63859717432559E-03  1.94198526464623E-01
 cg2d: Sum(rhs),rhsMax =  -4.63887622701533E-03  1.94205503338394E-01
 cg2d: Sum(rhs),rhsMax =  -4.63915661385632E-03  1.94212482004608E-01
 cg2d: Sum(rhs),rhsMax =  -4.63943834071186E-03  1.94219462462001E-01
 cg2d: Sum(rhs),rhsMax =  -4.63972141256454E-03  1.94226444709295E-01
 cg2d: Sum(rhs),rhsMax =  -4.64000583433069E-03  1.94233428745211E-01
 cg2d: Sum(rhs),rhsMax =  -4.64029161191741E-03  1.94240414568465E-01
 cg2d: Sum(rhs),rhsMax =  -4.64057874965155E-03  1.94247402177772E-01
 cg2d: Sum(rhs),rhsMax =  -4.64086725319113E-03  1.94254391571848E-01
 cg2d: Sum(rhs),rhsMax =  -4.64115712752059E-03  1.94261382749398E-01
 cg2d: Sum(rhs),rhsMax =  -4.64144837746631E-03  1.94268375709129E-01
 cg2d: Sum(rhs),rhsMax =  -4.64174100830293E-03  1.94275370449742E-01
 cg2d: Sum(rhs),rhsMax =  -4.64203502423391E-03  1.94282366969941E-01
 cg2d: Sum(rhs),rhsMax =  -4.64233043085653E-03  1.94289365268421E-01
 cg2d: Sum(rhs),rhsMax =  -4.64262723276421E-03  1.94296365343878E-01
 cg2d: Sum(rhs),rhsMax =  -4.64292543537381E-03  1.94303367195000E-01
 cg2d: Sum(rhs),rhsMax =  -4.64322504301561E-03  1.94310370820476E-01
 cg2d: Sum(rhs),rhsMax =  -4.64352606036568E-03  1.94317376218999E-01
 cg2d: Sum(rhs),rhsMax =  -4.64382849239631E-03  1.94324383389237E-01
 cg2d: Sum(rhs),rhsMax =  -4.64413234333272E-03  1.94331392329882E-01
 cg2d: Sum(rhs),rhsMax =  -4.64443761896281E-03  1.94338403039606E-01
 cg2d: Sum(rhs),rhsMax =  -4.64474432287163E-03  1.94345415517085E-01
 cg2d: Sum(rhs),rhsMax =  -4.64505245979533E-03  1.94352429760987E-01
 cg2d: Sum(rhs),rhsMax =  -4.64536203438120E-03  1.94359445769983E-01
 cg2d: Sum(rhs),rhsMax =  -4.64567305095188E-03  1.94366463542735E-01
 cg2d: Sum(rhs),rhsMax =  -4.64598551432730E-03  1.94373483077908E-01
 cg2d: Sum(rhs),rhsMax =  -4.64629942887431E-03  1.94380504374163E-01
 cg2d: Sum(rhs),rhsMax =  -4.64661479862511E-03  1.94387527430154E-01
 cg2d: Sum(rhs),rhsMax =  -4.64693162810946E-03  1.94394552244533E-01
 cg2d: Sum(rhs),rhsMax =  -4.64724992161165E-03  1.94401578815954E-01
 cg2d: Sum(rhs),rhsMax =  -4.64756968346760E-03  1.94408607143062E-01
 cg2d: Sum(rhs),rhsMax =  -4.64789091772607E-03  1.94415637224509E-01
 cg2d: Sum(rhs),rhsMax =  -4.64821362848487E-03  1.94422669058929E-01
 cg2d: Sum(rhs),rhsMax =  -4.64853782020262E-03  1.94429702644969E-01
 cg2d: Sum(rhs),rhsMax =  -4.64886349649779E-03  1.94436737981261E-01
(PID.TID 0000.0001)      cg2d_init_res =   5.27489803558025E-04
(PID.TID 0000.0001)      cg2d_iters(min,last) =      -1      73
(PID.TID 0000.0001)      cg2d_last_res =   8.77336085002841E-08
(PID.TID 0000.0001) // =======================================================
(PID.TID 0000.0001) // Begin MONITOR dynamic field statistics
(PID.TID 0000.0001) // =======================================================
(PID.TID 0000.0001) %MON time_tsnumber                =                 12744
(PID.TID 0000.0001) %MON time_secondsf                =   1.5292800000000E+07
(PID.TID 0000.0001) %MON dynstat_eta_max              =   2.8492318625610E-01
(PID.TID 0000.0001) %MON dynstat_eta_min              =  -9.7037049385820E-02
(PID.TID 0000.0001) %MON dynstat_eta_mean             =   4.5177148422544E-06
(PID.TID 0000.0001) %MON dynstat_eta_sd               =   1.1274955728142E-01
(PID.TID 0000.0001) %MON dynstat_eta_del2             =   3.0145686596985E-05
(PID.TID 0000.0001) %MON dynstat_uvel_max             =   1.4685822070874E-01
(PID.TID 0000.0001) %MON dynstat_uvel_min             =  -1.0695249835123E-01
(PID.TID 0000.0001) %MON dynstat_uvel_mean            =  -6.6988950511065E-08
(PID.TID 0000.0001) %MON dynstat_uvel_sd              =   4.6293373577192E-02
(PID.TID 0000.0001) %MON dynstat_uvel_del2            =   6.8971871391450E-05
(PID.TID 0000.0001) %MON dynstat_vvel_max             =   8.9837891369252E-02
(PID.TID 0000.0001) %MON dynstat_vvel_min             =  -1.2003817984961E-01
(PID.TID 0000.0001) %MON dynstat_vvel_mean            =   1.1412177569998E-07
(PID.TID 0000.0001) %MON dynstat_vvel_sd              =   4.2170342448023E-02
(PID.TID 0000.0001) %MON dynstat_vvel_del2            =   4.0571523040901E-05
(PID.TID 0000.0001) %MON dynstat_wvel_max             =   1.5310542081716E-08
(PID.TID 0000.0001) %MON dynstat_wvel_min             =  -6.8906135845464E-09
(PID.TID 0000.0001) %MON dynstat_wvel_mean            =   8.8212750092175E-22
(PID.TID 0000.0001) %MON dynstat_wvel_sd              =   5.4370323040743E-09
(PID.TID 0000.0001) %MON dynstat_wvel_del2            =   1.7679518962144E-12
(PID.TID 0000.0001) %MON dynstat_theta_max            =   2.0000000000000E+01
(PID.TID 0000.0001) %MON dynstat_theta_min            =   2.0000000000000E+01
(PID.TID 0000.0001) %MON dynstat_theta_mean           =   2.0000000000000E+01
(PID.TID 0000.0001) %MON dynstat_theta_sd             =   3.8014036363165E-13
(PID.TID 0000.0001) %MON dynstat_theta_del2           =   0.0000000000000E+00
(PID.TID 0000.0001) %MON dynstat_salt_max             =   3.0000000000000E+01
(PID.TID 0000.0001) %MON dynstat_salt_min             =   3.0000000000000E+01
(PID.TID 0000.0001) %MON dynstat_salt_mean            =   2.9999999999999E+01
(PID.TID 0000.0001) %MON dynstat_salt_sd              =   5.5777604757167E-13
(PID.TID 0000.0001) %MON dynstat_salt_del2            =   0.0000000000000E+00
(PID.TID 0000.0001) %MON trAdv_CFL_u_max              =   8.8104980506482E-03
(PID.TID 0000.0001) %MON trAdv_CFL_v_max              =   7.1924819048962E-03
(PID.TID 0000.0001) %MON trAdv_CFL_w_max              =   4.0575916740836E-09
(PID.TID 0000.0001) %MON advcfl_uvel_max              =   8.8114932425246E-03
(PID.TID 0000.0001) %MON advcfl_vvel_max              =   7.2022907909766E-03
(PID.TID 0000.0001) %MON advcfl_wvel_max              =   7.3490601992235E-09
(PID.TID 0000.0001) %MON advcfl_W_hf_max              =   0.0000000000000E+00
(PID.TID 0000.0001) %MON pe_b_mean                    =   1.3033257768830E-05
(PID.TID 0000.0001) %MON ke_max                       =   1.0799037165918E-02
(PID.TID 0000.0001) %MON ke_mean                      =   1.9246524194469E-03
(PID.TID 0000.0001) %MON ke_vol                       =   6.8893493896486E+15
(PID.TID 0000.0001) %MON vort_r_min                   =  -1.0214274153940E-06
(PID.TID 0000.0001) %MON vort_r_max                   =   3.1712270335671E-06
(PID.TID 0000.0001) %MON vort_a_mean                  =   1.0600000000000E-04
(PID.TID 0000.0001) %MON vort_a_sd                    =   3.5621242959114E-06
(PID.TID 0000.0001) %MON vort_p_mean                  =   1.1652272308690E-04
(PID.TID 0000.0001) %MON vort_p_sd                    =   4.1787825621549E-05
(PID.TID 0000.0001) %MON surfExpan_theta_mean         =   1.7683987607597E-20
(PID.TID 0000.0001) %MON surfExpan_salt_mean          =   2.6525349817853E-20
(PID.TID 0000.0001) // =======================================================
(PID.TID 0000.0001) // End MONITOR dynamic field statistics
(PID.TID 0000.0001) // =======================================================
 cg2d: Sum(rhs),rhsMax =  -4.64919066205006E-03  1.94443775066436E-01
 cg2d: Sum(rhs),rhsMax =  -4.64951932006315E-03  1.94450813899133E-01
 cg2d: Sum(rhs),rhsMax =  -4.64984947502005E-03  1.94457854477974E-01
 cg2d: Sum(rhs),rhsMax =  -4.65018113073244E-03  1.94464896801590E-01
 cg2d: Sum(rhs),rhsMax =  -4.65051429039303E-03  1.94471940868599E-01
 cg2d: Sum(rhs),rhsMax =  -4.65084895886711E-03  1.94478986677621E-01
 cg2d: Sum(rhs),rhsMax =  -4.65118513888406E-03  1.94486034227278E-01
 cg2d: Sum(rhs),rhsMax =  -4.65152283484475E-03  1.94493083516181E-01
 cg2d: Sum(rhs),rhsMax =  -4.65186205048260E-03  1.94500134542940E-01
 cg2d: Sum(rhs),rhsMax =  -4.65220278859805E-03  1.94507187306167E-01
 cg2d: Sum(rhs),rhsMax =  -4.65254505349583E-03  1.94514241804466E-01
 cg2d: Sum(rhs),rhsMax =  -4.65288884860935E-03  1.94521298036438E-01
 cg2d: Sum(rhs),rhsMax =  -4.65323417663835E-03  1.94528356000687E-01
 cg2d: Sum(rhs),rhsMax =  -4.65358104196163E-03  1.94535415695810E-01
 cg2d: Sum(rhs),rhsMax =  -4.65392944725453E-03  1.94542477120406E-01
 cg2d: Sum(rhs),rhsMax =  -4.65427939620366E-03  1.94549540273060E-01
 cg2d: Sum(rhs),rhsMax =  -4.65463089241231E-03  1.94556605152367E-01
 cg2d: Sum(rhs),rhsMax =  -4.65498393850317E-03  1.94563671756909E-01
 cg2d: Sum(rhs),rhsMax =  -4.65533853776546E-03  1.94570740085279E-01
 cg2d: Sum(rhs),rhsMax =  -4.65569469333682E-03  1.94577810136051E-01
 cg2d: Sum(rhs),rhsMax =  -4.65605240842560E-03  1.94584881907803E-01
 cg2d: Sum(rhs),rhsMax =  -4.65641168600593E-03  1.94591955399113E-01
 cg2d: Sum(rhs),rhsMax =  -4.65677252907948E-03  1.94599030608554E-01
 cg2d: Sum(rhs),rhsMax =  -4.65713494010948E-03  1.94606107534701E-01
 cg2d: Sum(rhs),rhsMax =  -4.65749892240998E-03  1.94613186176113E-01
 cg2d: Sum(rhs),rhsMax =  -4.65786447832989E-03  1.94620266531367E-01
 cg2d: Sum(rhs),rhsMax =  -4.65823161137542E-03  1.94627348599011E-01
 cg2d: Sum(rhs),rhsMax =  -4.65860032370211E-03  1.94634432377621E-01
 cg2d: Sum(rhs),rhsMax =  -4.65897061793373E-03  1.94641517865742E-01
 cg2d: Sum(rhs),rhsMax =  -4.65934249653244E-03  1.94648605061933E-01
 cg2d: Sum(rhs),rhsMax =  -4.65971596230873E-03  1.94655693964747E-01
 cg2d: Sum(rhs),rhsMax =  -4.66009101797604E-03  1.94662784572734E-01
 cg2d: Sum(rhs),rhsMax =  -4.66046766587876E-03  1.94669876884434E-01
 cg2d: Sum(rhs),rhsMax =  -4.66084590758426E-03  1.94676970898399E-01
 cg2d: Sum(rhs),rhsMax =  -4.66122574595154E-03  1.94684066613167E-01
 cg2d: Sum(rhs),rhsMax =  -4.66160718350131E-03  1.94691164027273E-01
 cg2d: Sum(rhs),rhsMax =  -4.66199022236731E-03  1.94698263139263E-01
 cg2d: Sum(rhs),rhsMax =  -4.66237486435635E-03  1.94705363947659E-01
 cg2d: Sum(rhs),rhsMax =  -4.66276111206588E-03  1.94712466451002E-01
 cg2d: Sum(rhs),rhsMax =  -4.66314896694638E-03  1.94719570647813E-01
 cg2d: Sum(rhs),rhsMax =  -4.66353843129416E-03  1.94726676536622E-01
 cg2d: Sum(rhs),rhsMax =  -4.66392950725956E-03  1.94733784115952E-01
 cg2d: Sum(rhs),rhsMax =  -4.66432219642738E-03  1.94740893384319E-01
 cg2d: Sum(rhs),rhsMax =  -4.66471650019145E-03  1.94748004340250E-01
 cg2d: Sum(rhs),rhsMax =  -4.66511242142668E-03  1.94755116982246E-01
 cg2d: Sum(rhs),rhsMax =  -4.66550996112994E-03  1.94762231308830E-01
 cg2d: Sum(rhs),rhsMax =  -4.66590912108283E-03  1.94769347318517E-01
 cg2d: Sum(rhs),rhsMax =  -4.66630990288795E-03  1.94776465009802E-01
 cg2d: Sum(rhs),rhsMax =  -4.66671230767220E-03  1.94783584381198E-01
 cg2d: Sum(rhs),rhsMax =  -4.66711633723985E-03  1.94790705431208E-01
 cg2d: Sum(rhs),rhsMax =  -4.66752199313310E-03  1.94797828158325E-01
 cg2d: Sum(rhs),rhsMax =  -4.66792927670005E-03  1.94804952561056E-01
 cg2d: Sum(rhs),rhsMax =  -4.66833818909146E-03  1.94812078637888E-01
 cg2d: Sum(rhs),rhsMax =  -4.66874873166266E-03  1.94819206387320E-01
 cg2d: Sum(rhs),rhsMax =  -4.66916090551033E-03  1.94826335807839E-01
 cg2d: Sum(rhs),rhsMax =  -4.66957471196259E-03  1.94833466897931E-01
 cg2d: Sum(rhs),rhsMax =  -4.66999015148598E-03  1.94840599656082E-01
 cg2d: Sum(rhs),rhsMax =  -4.67040722593688E-03  1.94847734080772E-01
 cg2d: Sum(rhs),rhsMax =  -4.67082593597238E-03  1.94854870170486E-01
 cg2d: Sum(rhs),rhsMax =  -4.67124628236148E-03  1.94862007923697E-01
 cg2d: Sum(rhs),rhsMax =  -4.67166826616967E-03  1.94869147338882E-01
 cg2d: Sum(rhs),rhsMax =  -4.67209188784196E-03  1.94876288414519E-01
 cg2d: Sum(rhs),rhsMax =  -4.67251714817381E-03  1.94883431149060E-01
 cg2d: Sum(rhs),rhsMax =  -4.67294404792137E-03  1.94890575540989E-01
 cg2d: Sum(rhs),rhsMax =  -4.67337258772603E-03  1.94897721588767E-01
 cg2d: Sum(rhs),rhsMax =  -4.67380276798503E-03  1.94904869290860E-01
 cg2d: Sum(rhs),rhsMax =  -4.67423458990080E-03  1.94912018645720E-01
 cg2d: Sum(rhs),rhsMax =  -4.67466805319669E-03  1.94919169651809E-01
 cg2d: Sum(rhs),rhsMax =  -4.67510315813170E-03  1.94926322307579E-01
 cg2d: Sum(rhs),rhsMax =  -4.67553990573785E-03  1.94933476611488E-01
 cg2d: Sum(rhs),rhsMax =  -4.67597829537221E-03  1.94940632561985E-01
 cg2d: Sum(rhs),rhsMax =  -4.67641832781169E-03  1.94947790157514E-01
(PID.TID 0000.0001)      cg2d_init_res =   5.24416956179146E-04
(PID.TID 0000.0001)      cg2d_iters(min,last) =      -1      73
(PID.TID 0000.0001)      cg2d_last_res =   8.93965600602719E-08
(PID.TID 0000.0001) // =======================================================
(PID.TID 0000.0001) // Begin MONITOR dynamic field statistics
(PID.TID 0000.0001) // =======================================================
(PID.TID 0000.0001) %MON time_tsnumber                =                 12816
(PID.TID 0000.0001) %MON time_secondsf                =   1.5379200000000E+07
(PID.TID 0000.0001) %MON dynstat_eta_max              =   2.8618998988708E-01
(PID.TID 0000.0001) %MON dynstat_eta_min              =  -9.7353511867508E-02
(PID.TID 0000.0001) %MON dynstat_eta_mean             =   4.5565490433881E-06
(PID.TID 0000.0001) %MON dynstat_eta_sd               =   1.1320015074914E-01
(PID.TID 0000.0001) %MON dynstat_eta_del2             =   3.0229201345360E-05
(PID.TID 0000.0001) %MON dynstat_uvel_max             =   1.4722015032468E-01
(PID.TID 0000.0001) %MON dynstat_uvel_min             =  -1.0742923734186E-01
(PID.TID 0000.0001) %MON dynstat_uvel_mean            =  -6.7280414797864E-08
(PID.TID 0000.0001) %MON dynstat_uvel_sd              =   4.6468151326721E-02
(PID.TID 0000.0001) %MON dynstat_uvel_del2            =   6.9077955645174E-05
(PID.TID 0000.0001) %MON dynstat_vvel_max             =   9.0328091178222E-02
(PID.TID 0000.0001) %MON dynstat_vvel_min             =  -1.2055021004087E-01
(PID.TID 0000.0001) %MON dynstat_vvel_mean            =   1.1970346311659E-07
(PID.TID 0000.0001) %MON dynstat_vvel_sd              =   4.2333874217588E-02
(PID.TID 0000.0001) %MON dynstat_vvel_del2            =   4.0558204117010E-05
(PID.TID 0000.0001) %MON dynstat_wvel_max             =   1.5198163276073E-08
(PID.TID 0000.0001) %MON dynstat_wvel_min             =  -6.9560985564021E-09
(PID.TID 0000.0001) %MON dynstat_wvel_mean            =   6.4984911002992E-21
(PID.TID 0000.0001) %MON dynstat_wvel_sd              =   5.4174784458828E-09
(PID.TID 0000.0001) %MON dynstat_wvel_del2            =   1.7545416212170E-12
(PID.TID 0000.0001) %MON dynstat_theta_max            =   2.0000000000000E+01
(PID.TID 0000.0001) %MON dynstat_theta_min            =   2.0000000000000E+01
(PID.TID 0000.0001) %MON dynstat_theta_mean           =   2.0000000000000E+01
(PID.TID 0000.0001) %MON dynstat_theta_sd             =   3.8014036363165E-13
(PID.TID 0000.0001) %MON dynstat_theta_del2           =   0.0000000000000E+00
(PID.TID 0000.0001) %MON dynstat_salt_max             =   3.0000000000000E+01
(PID.TID 0000.0001) %MON dynstat_salt_min             =   3.0000000000000E+01
(PID.TID 0000.0001) %MON dynstat_salt_mean            =   2.9999999999999E+01
(PID.TID 0000.0001) %MON dynstat_salt_sd              =   5.5777604757167E-13
(PID.TID 0000.0001) %MON dynstat_salt_del2            =   0.0000000000000E+00
(PID.TID 0000.0001) %MON trAdv_CFL_u_max              =   8.8322067347174E-03
(PID.TID 0000.0001) %MON trAdv_CFL_v_max              =   7.2231721089544E-03
(PID.TID 0000.0001) %MON trAdv_CFL_w_max              =   4.0292397496272E-09
(PID.TID 0000.0001) %MON advcfl_uvel_max              =   8.8332090194809E-03
(PID.TID 0000.0001) %MON advcfl_vvel_max              =   7.2330126024519E-03
(PID.TID 0000.0001) %MON advcfl_wvel_max              =   7.2951183725148E-09
(PID.TID 0000.0001) %MON advcfl_W_hf_max              =   0.0000000000000E+00
(PID.TID 0000.0001) %MON pe_b_mean                    =   1.3137638412566E-05
(PID.TID 0000.0001) %MON ke_max                       =   1.0852359057644E-02
(PID.TID 0000.0001) %MON ke_mean                      =   1.9393921853872E-03
(PID.TID 0000.0001) %MON ke_vol                       =   6.8893493896486E+15
(PID.TID 0000.0001) %MON vort_r_min                   =  -1.0184156601329E-06
(PID.TID 0000.0001) %MON vort_r_max                   =   3.1788047960909E-06
(PID.TID 0000.0001) %MON vort_a_mean                  =   1.0600000000000E-04
(PID.TID 0000.0001) %MON vort_a_sd                    =   3.5623459852440E-06
(PID.TID 0000.0001) %MON vort_p_mean                  =   1.1652272308690E-04
(PID.TID 0000.0001) %MON vort_p_sd                    =   4.1787859455497E-05
(PID.TID 0000.0001) %MON surfExpan_theta_mean         =   1.2999458299924E-19
(PID.TID 0000.0001) %MON surfExpan_salt_mean          =   1.9499945362137E-19
(PID.TID 0000.0001) // =======================================================
(PID.TID 0000.0001) // End MONITOR dynamic field statistics
(PID.TID 0000.0001) // =======================================================
 cg2d: Sum(rhs),rhsMax =  -4.67686000363142E-03  1.94954949396524E-01
 cg2d: Sum(rhs),rhsMax =  -4.67730332203494E-03  1.94962110277456E-01
 cg2d: Sum(rhs),rhsMax =  -4.67774828386341E-03  1.94969272798753E-01
 cg2d: Sum(rhs),rhsMax =  -4.67819488851212E-03  1.94976436958851E-01
 cg2d: Sum(rhs),rhsMax =  -4.67864313595069E-03  1.94983602756188E-01
 cg2d: Sum(rhs),rhsMax =  -4.67909302626110E-03  1.94990770189191E-01
 cg2d: Sum(rhs),rhsMax =  -4.67954455906639E-03  1.94997939256304E-01
 cg2d: Sum(rhs),rhsMax =  -4.67999773401503E-03  1.95005109955943E-01
 cg2d: Sum(rhs),rhsMax =  -4.68045255121840E-03  1.95012282286539E-01
 cg2d: Sum(rhs),rhsMax =  -4.68090901022108E-03  1.95019456246514E-01
 cg2d: Sum(rhs),rhsMax =  -4.68136710990198E-03  1.95026631834293E-01
 cg2d: Sum(rhs),rhsMax =  -4.68182685053617E-03  1.95033809048297E-01
 cg2d: Sum(rhs),rhsMax =  -4.68228823152801E-03  1.95040987886933E-01
 cg2d: Sum(rhs),rhsMax =  -4.68275125241491E-03  1.95048168348629E-01
 cg2d: Sum(rhs),rhsMax =  -4.68321591194462E-03  1.95055350431785E-01
 cg2d: Sum(rhs),rhsMax =  -4.68368221005834E-03  1.95062534134814E-01
 cg2d: Sum(rhs),rhsMax =  -4.68415014504252E-03  1.95069719456126E-01
 cg2d: Sum(rhs),rhsMax =  -4.68461971740981E-03  1.95076906394126E-01
 cg2d: Sum(rhs),rhsMax =  -4.68509092505627E-03  1.95084094947215E-01
 cg2d: Sum(rhs),rhsMax =  -4.68556376782558E-03  1.95091285113793E-01
 cg2d: Sum(rhs),rhsMax =  -4.68603824467152E-03  1.95098476892263E-01
 cg2d: Sum(rhs),rhsMax =  -4.68651435371173E-03  1.95105670281013E-01
 cg2d: Sum(rhs),rhsMax =  -4.68699209510355E-03  1.95112865278442E-01
 cg2d: Sum(rhs),rhsMax =  -4.68747146663966E-03  1.95120061882937E-01
 cg2d: Sum(rhs),rhsMax =  -4.68795246781066E-03  1.95127260092892E-01
 cg2d: Sum(rhs),rhsMax =  -4.68843509734990E-03  1.95134459906691E-01
 cg2d: Sum(rhs),rhsMax =  -4.68891935307596E-03  1.95141661322718E-01
 cg2d: Sum(rhs),rhsMax =  -4.68940523448367E-03  1.95148864339353E-01
 cg2d: Sum(rhs),rhsMax =  -4.68989274025291E-03  1.95156068954982E-01
 cg2d: Sum(rhs),rhsMax =  -4.69038186816759E-03  1.95163275167978E-01
 cg2d: Sum(rhs),rhsMax =  -4.69087261748594E-03  1.95170482976718E-01
 cg2d: Sum(rhs),rhsMax =  -4.69136498578432E-03  1.95177692379567E-01
 cg2d: Sum(rhs),rhsMax =  -4.69185897197127E-03  1.95184903374908E-01
 cg2d: Sum(rhs),rhsMax =  -4.69235457383310E-03  1.95192115961107E-01
 cg2d: Sum(rhs),rhsMax =  -4.69285179025379E-03  1.95199330136522E-01
 cg2d: Sum(rhs),rhsMax =  -4.69335061893773E-03  1.95206545899527E-01
 cg2d: Sum(rhs),rhsMax =  -4.69385105864926E-03  1.95213763248477E-01
 cg2d: Sum(rhs),rhsMax =  -4.69435310688053E-03  1.95220982181731E-01
 cg2d: Sum(rhs),rhsMax =  -4.69485676179434E-03  1.95228202697651E-01
 cg2d: Sum(rhs),rhsMax =  -4.69536202183123E-03  1.95235424794594E-01
 cg2d: Sum(rhs),rhsMax =  -4.69586888433079E-03  1.95242648470903E-01
 cg2d: Sum(rhs),rhsMax =  -4.69637734724511E-03  1.95249873724937E-01
 cg2d: Sum(rhs),rhsMax =  -4.69688740853334E-03  1.95257100555043E-01
 cg2d: Sum(rhs),rhsMax =  -4.69739906625488E-03  1.95264328959565E-01
 cg2d: Sum(rhs),rhsMax =  -4.69791231825725E-03  1.95271558936848E-01
 cg2d: Sum(rhs),rhsMax =  -4.69842716134874E-03  1.95278790485235E-01
 cg2d: Sum(rhs),rhsMax =  -4.69894359408398E-03  1.95286023603073E-01
 cg2d: Sum(rhs),rhsMax =  -4.69946161336108E-03  1.95293258288685E-01
 cg2d: Sum(rhs),rhsMax =  -4.69998121742896E-03  1.95300494540411E-01
 cg2d: Sum(rhs),rhsMax =  -4.70050240305793E-03  1.95307732356591E-01
 cg2d: Sum(rhs),rhsMax =  -4.70102516858429E-03  1.95314971735551E-01
 cg2d: Sum(rhs),rhsMax =  -4.70154951045226E-03  1.95322212675620E-01
 cg2d: Sum(rhs),rhsMax =  -4.70207542672809E-03  1.95329455175125E-01
 cg2d: Sum(rhs),rhsMax =  -4.70260291426824E-03  1.95336699232392E-01
 cg2d: Sum(rhs),rhsMax =  -4.70313197045761E-03  1.95343944845744E-01
 cg2d: Sum(rhs),rhsMax =  -4.70366259204147E-03  1.95351192013497E-01
 cg2d: Sum(rhs),rhsMax =  -4.70419477706904E-03  1.95358440733975E-01
 cg2d: Sum(rhs),rhsMax =  -4.70472852233582E-03  1.95365691005492E-01
 cg2d: Sum(rhs),rhsMax =  -4.70526382457512E-03  1.95372942826361E-01
 cg2d: Sum(rhs),rhsMax =  -4.70580068104816E-03  1.95380196194891E-01
 cg2d: Sum(rhs),rhsMax =  -4.70633908872123E-03  1.95387451109400E-01
 cg2d: Sum(rhs),rhsMax =  -4.70687904438329E-03  1.95394707568190E-01
 cg2d: Sum(rhs),rhsMax =  -4.70742054530915E-03  1.95401965569567E-01
 cg2d: Sum(rhs),rhsMax =  -4.70796358784189E-03  1.95409225111840E-01
 cg2d: Sum(rhs),rhsMax =  -4.70861427811931E-03  1.95416485948104E-01
 cg2d: Sum(rhs),rhsMax =  -4.70926660523968E-03  1.95423748543120E-01
 cg2d: Sum(rhs),rhsMax =  -4.70992046898010E-03  1.95431012706938E-01
 cg2d: Sum(rhs),rhsMax =  -4.71057589042295E-03  1.95438278395834E-01
 cg2d: Sum(rhs),rhsMax =  -4.71123286022763E-03  1.95445545612887E-01
 cg2d: Sum(rhs),rhsMax =  -4.71189137383982E-03  1.95452814359777E-01
 cg2d: Sum(rhs),rhsMax =  -4.71255142885490E-03  1.95460084635724E-01
 cg2d: Sum(rhs),rhsMax =  -4.71321302354822E-03  1.95467356438947E-01
(PID.TID 0000.0001)      cg2d_init_res =   5.21922029087217E-04
(PID.TID 0000.0001)      cg2d_iters(min,last) =      -1      72
(PID.TID 0000.0001)      cg2d_last_res =   9.97990990913279E-08
(PID.TID 0000.0001) // =======================================================
(PID.TID 0000.0001) // Begin MONITOR dynamic field statistics
(PID.TID 0000.0001) // =======================================================
(PID.TID 0000.0001) %MON time_tsnumber                =                 12888
(PID.TID 0000.0001) %MON time_secondsf                =   1.5465600000000E+07
(PID.TID 0000.0001) %MON dynstat_eta_max              =   2.8745144618871E-01
(PID.TID 0000.0001) %MON dynstat_eta_min              =  -9.7664175333333E-02
(PID.TID 0000.0001) %MON dynstat_eta_mean             =   4.6048552323019E-06
(PID.TID 0000.0001) %MON dynstat_eta_sd               =   1.1364876458681E-01
(PID.TID 0000.0001) %MON dynstat_eta_del2             =   3.0312974895901E-05
(PID.TID 0000.0001) %MON dynstat_uvel_max             =   1.4758862339107E-01
(PID.TID 0000.0001) %MON dynstat_uvel_min             =  -1.0791507374614E-01
(PID.TID 0000.0001) %MON dynstat_uvel_mean            =  -6.5991024545552E-08
(PID.TID 0000.0001) %MON dynstat_uvel_sd              =   4.6644329498967E-02
(PID.TID 0000.0001) %MON dynstat_uvel_del2            =   6.9186139164538E-05
(PID.TID 0000.0001) %MON dynstat_vvel_max             =   9.0815984733846E-02
(PID.TID 0000.0001) %MON dynstat_vvel_min             =  -1.2105163289255E-01
(PID.TID 0000.0001) %MON dynstat_vvel_mean            =   1.2488627476120E-07
(PID.TID 0000.0001) %MON dynstat_vvel_sd              =   4.2494853813278E-02
(PID.TID 0000.0001) %MON dynstat_vvel_del2            =   4.0546211206778E-05
(PID.TID 0000.0001) %MON dynstat_wvel_max             =   1.5094007165753E-08
(PID.TID 0000.0001) %MON dynstat_wvel_min             =  -7.0080742053688E-09
(PID.TID 0000.0001) %MON dynstat_wvel_mean            =   1.3226703761878E-20
(PID.TID 0000.0001) %MON dynstat_wvel_sd              =   5.3950579591641E-09
(PID.TID 0000.0001) %MON dynstat_wvel_del2            =   1.7438350644513E-12
(PID.TID 0000.0001) %MON dynstat_theta_max            =   2.0000000000000E+01
(PID.TID 0000.0001) %MON dynstat_theta_min            =   2.0000000000000E+01
(PID.TID 0000.0001) %MON dynstat_theta_mean           =   2.0000000000000E+01
(PID.TID 0000.0001) %MON dynstat_theta_sd             =   3.8014036363165E-13
(PID.TID 0000.0001) %MON dynstat_theta_del2           =   0.0000000000000E+00
(PID.TID 0000.0001) %MON dynstat_salt_max             =   3.0000000000000E+01
(PID.TID 0000.0001) %MON dynstat_salt_min             =   3.0000000000000E+01
(PID.TID 0000.0001) %MON dynstat_salt_mean            =   2.9999999999999E+01
(PID.TID 0000.0001) %MON dynstat_salt_sd              =   5.5777604757167E-13
(PID.TID 0000.0001) %MON dynstat_salt_del2            =   0.0000000000000E+00
(PID.TID 0000.0001) %MON trAdv_CFL_u_max              =   8.8543078555471E-03
(PID.TID 0000.0001) %MON trAdv_CFL_v_max              =   7.2532275404894E-03
(PID.TID 0000.0001) %MON trAdv_CFL_w_max              =   4.0028602614795E-09
(PID.TID 0000.0001) %MON advcfl_uvel_max              =   8.8553174034643E-03
(PID.TID 0000.0001) %MON advcfl_vvel_max              =   7.2630979735532E-03
(PID.TID 0000.0001) %MON advcfl_wvel_max              =   7.2451234395616E-09
(PID.TID 0000.0001) %MON advcfl_W_hf_max              =   0.0000000000000E+00
(PID.TID 0000.0001) %MON pe_b_mean                    =   1.3241974048601E-05
(PID.TID 0000.0001) %MON ke_max                       =   1.0906725941970E-02
(PID.TID 0000.0001) %MON ke_mean                      =   1.9541458442567E-03
(PID.TID 0000.0001) %MON ke_vol                       =   6.8893493896486E+15
(PID.TID 0000.0001) %MON vort_r_min                   =  -1.0153017434855E-06
(PID.TID 0000.0001) %MON vort_r_max                   =   3.1865322134222E-06
(PID.TID 0000.0001) %MON vort_a_mean                  =   1.0600000000000E-04
(PID.TID 0000.0001) %MON vort_a_sd                    =   3.5625707954850E-06
(PID.TID 0000.0001) %MON vort_p_mean                  =   1.1652272308690E-04
(PID.TID 0000.0001) %MON vort_p_sd                    =   4.1787897397100E-05
(PID.TID 0000.0001) %MON surfExpan_theta_mean         =   2.6451769170106E-19
(PID.TID 0000.0001) %MON surfExpan_salt_mean          =   3.9677022161615E-19
(PID.TID 0000.0001) // =======================================================
(PID.TID 0000.0001) // End MONITOR dynamic field statistics
(PID.TID 0000.0001) // =======================================================
 cg2d: Sum(rhs),rhsMax =  -4.71387615479715E-03  1.95474629767571E-01
 cg2d: Sum(rhs),rhsMax =  -4.71454081889114E-03  1.95481904619914E-01
 cg2d: Sum(rhs),rhsMax =  -4.71520701117236E-03  1.95489180994388E-01
 cg2d: Sum(rhs),rhsMax =  -4.71587472717971E-03  1.95496458889354E-01
 cg2d: Sum(rhs),rhsMax =  -4.71654396187606E-03  1.95503738303093E-01
 cg2d: Sum(rhs),rhsMax =  -4.71721471115021E-03  1.95511019233817E-01
 cg2d: Sum(rhs),rhsMax =  -4.71788697075671E-03  1.95518301679739E-01
 cg2d: Sum(rhs),rhsMax =  -4.71856073613722E-03  1.95525585639100E-01
 cg2d: Sum(rhs),rhsMax =  -4.71923600321290E-03  1.95532871110152E-01
 cg2d: Sum(rhs),rhsMax =  -4.71991276776881E-03  1.95540158091173E-01
 cg2d: Sum(rhs),rhsMax =  -4.72059102486300E-03  1.95547446580440E-01
 cg2d: Sum(rhs),rhsMax =  -4.72127077070280E-03  1.95554736576218E-01
 cg2d: Sum(rhs),rhsMax =  -4.72195199977084E-03  1.95562028076788E-01
 cg2d: Sum(rhs),rhsMax =  -4.72263470819920E-03  1.95569321080404E-01
 cg2d: Sum(rhs),rhsMax =  -4.72331889098882E-03  1.95576615585330E-01
 cg2d: Sum(rhs),rhsMax =  -4.72400454343914E-03  1.95583911589819E-01
 cg2d: Sum(rhs),rhsMax =  -4.72469166113160E-03  1.95591209092128E-01
 cg2d: Sum(rhs),rhsMax =  -4.72538023933126E-03  1.95598508090506E-01
 cg2d: Sum(rhs),rhsMax =  -4.72607027309230E-03  1.95605808583193E-01
 cg2d: Sum(rhs),rhsMax =  -4.72676175774824E-03  1.95613110568441E-01
 cg2d: Sum(rhs),rhsMax =  -4.72745468855473E-03  1.95620414044489E-01
 cg2d: Sum(rhs),rhsMax =  -4.72814906069938E-03  1.95627719009581E-01
 cg2d: Sum(rhs),rhsMax =  -4.72884486883795E-03  1.95635025461960E-01
 cg2d: Sum(rhs),rhsMax =  -4.72954210876317E-03  1.95642333399866E-01
 cg2d: Sum(rhs),rhsMax =  -4.73024077493763E-03  1.95649642821533E-01
 cg2d: Sum(rhs),rhsMax =  -4.73094086226500E-03  1.95656953725206E-01
 cg2d: Sum(rhs),rhsMax =  -4.73164236676776E-03  1.95664266109116E-01
 cg2d: Sum(rhs),rhsMax =  -4.73234528233674E-03  1.95671579971489E-01
 cg2d: Sum(rhs),rhsMax =  -4.73304960481950E-03  1.95678895310567E-01
 cg2d: Sum(rhs),rhsMax =  -4.73375532826233E-03  1.95686212124569E-01
 cg2d: Sum(rhs),rhsMax =  -4.73446244815389E-03  1.95693530411724E-01
 cg2d: Sum(rhs),rhsMax =  -4.73517095902985E-03  1.95700850170255E-01
 cg2d: Sum(rhs),rhsMax =  -4.73588085611478E-03  1.95708171398383E-01
 cg2d: Sum(rhs),rhsMax =  -4.73659213394926E-03  1.95715494094330E-01
 cg2d: Sum(rhs),rhsMax =  -4.73730478706664E-03  1.95722818256316E-01
 cg2d: Sum(rhs),rhsMax =  -4.73801881089192E-03  1.95730143882554E-01
 cg2d: Sum(rhs),rhsMax =  -4.73873419973222E-03  1.95737470971262E-01
 cg2d: Sum(rhs),rhsMax =  -4.73945094808302E-03  1.95744799520657E-01
 cg2d: Sum(rhs),rhsMax =  -4.74016905127720E-03  1.95752129528944E-01
 cg2d: Sum(rhs),rhsMax =  -4.74088850323978E-03  1.95759460994337E-01
 cg2d: Sum(rhs),rhsMax =  -4.74160929915783E-03  1.95766793915038E-01
 cg2d: Sum(rhs),rhsMax =  -4.74233143352817E-03  1.95774128289258E-01
 cg2d: Sum(rhs),rhsMax =  -4.74305490107244E-03  1.95781464115202E-01
 cg2d: Sum(rhs),rhsMax =  -4.74377969593043E-03  1.95788801391068E-01
 cg2d: Sum(rhs),rhsMax =  -4.74450581316906E-03  1.95796140115059E-01
 cg2d: Sum(rhs),rhsMax =  -4.74523324731278E-03  1.95803480285373E-01
 cg2d: Sum(rhs),rhsMax =  -4.74596199270704E-03  1.95810821900205E-01
 cg2d: Sum(rhs),rhsMax =  -4.74669204362762E-03  1.95818164957752E-01
 cg2d: Sum(rhs),rhsMax =  -4.74742339469154E-03  1.95825509456201E-01
 cg2d: Sum(rhs),rhsMax =  -4.74815604066878E-03  1.95832855393756E-01
 cg2d: Sum(rhs),rhsMax =  -4.74888997576613E-03  1.95840202768598E-01
 cg2d: Sum(rhs),rhsMax =  -4.74962519478462E-03  1.95847551578915E-01
 cg2d: Sum(rhs),rhsMax =  -4.75036169130948E-03  1.95854901822892E-01
 cg2d: Sum(rhs),rhsMax =  -4.75109946084020E-03  1.95862253498722E-01
 cg2d: Sum(rhs),rhsMax =  -4.75183849645224E-03  1.95869606604570E-01
 cg2d: Sum(rhs),rhsMax =  -4.75257879360206E-03  1.95876961138639E-01
 cg2d: Sum(rhs),rhsMax =  -4.75332034642569E-03  1.95884317099089E-01
 cg2d: Sum(rhs),rhsMax =  -4.75406314882550E-03  1.95891674484110E-01
 cg2d: Sum(rhs),rhsMax =  -4.75480719539847E-03  1.95899033291866E-01
 cg2d: Sum(rhs),rhsMax =  -4.75555248072369E-03  1.95906393520543E-01
 cg2d: Sum(rhs),rhsMax =  -4.75629899869823E-03  1.95913755168306E-01
 cg2d: Sum(rhs),rhsMax =  -4.75704674367709E-03  1.95921118233324E-01
 cg2d: Sum(rhs),rhsMax =  -4.75779571005150E-03  1.95928482713769E-01
 cg2d: Sum(rhs),rhsMax =  -4.75854589201674E-03  1.95935848607807E-01
 cg2d: Sum(rhs),rhsMax =  -4.75929728375175E-03  1.95943215913597E-01
 cg2d: Sum(rhs),rhsMax =  -4.76004987971246E-03  1.95950584629314E-01
 cg2d: Sum(rhs),rhsMax =  -4.76080367372200E-03  1.95957954753113E-01
 cg2d: Sum(rhs),rhsMax =  -4.76155866012377E-03  1.95965326283155E-01
 cg2d: Sum(rhs),rhsMax =  -4.76231483292261E-03  1.95972699217597E-01
 cg2d: Sum(rhs),rhsMax =  -4.76307218724282E-03  1.95980073554599E-01
 cg2d: Sum(rhs),rhsMax =  -4.76383071649406E-03  1.95987449292308E-01
 cg2d: Sum(rhs),rhsMax =  -4.76459041475607E-03  1.95994826428886E-01
(PID.TID 0000.0001)      cg2d_init_res =   5.19932696972019E-04
(PID.TID 0000.0001)      cg2d_iters(min,last) =      -1      72
(PID.TID 0000.0001)      cg2d_last_res =   9.80322234262127E-08
(PID.TID 0000.0001) // =======================================================
(PID.TID 0000.0001) // Begin MONITOR dynamic field statistics
(PID.TID 0000.0001) // =======================================================
(PID.TID 0000.0001) %MON time_tsnumber                =                 12960
(PID.TID 0000.0001) %MON time_secondsf                =   1.5552000000000E+07
(PID.TID 0000.0001) %MON dynstat_eta_max              =   2.8870732264693E-01
(PID.TID 0000.0001) %MON dynstat_eta_min              =  -9.7967753354061E-02
(PID.TID 0000.0001) %MON dynstat_eta_mean             =   4.6677038196971E-06
(PID.TID 0000.0001) %MON dynstat_eta_sd               =   1.1409507546684E-01
(PID.TID 0000.0001) %MON dynstat_eta_del2             =   3.0397138189601E-05
(PID.TID 0000.0001) %MON dynstat_uvel_max             =   1.4796377048476E-01
(PID.TID 0000.0001) %MON dynstat_uvel_min             =  -1.0841030652641E-01
(PID.TID 0000.0001) %MON dynstat_uvel_mean            =  -6.3291983932523E-08
(PID.TID 0000.0001) %MON dynstat_uvel_sd              =   4.6821626111836E-02
(PID.TID 0000.0001) %MON dynstat_uvel_del2            =   6.9296777848343E-05
(PID.TID 0000.0001) %MON dynstat_vvel_max             =   9.1304150209511E-02
(PID.TID 0000.0001) %MON dynstat_vvel_min             =  -1.2154147926067E-01
(PID.TID 0000.0001) %MON dynstat_vvel_mean            =   1.2948156577544E-07
(PID.TID 0000.0001) %MON dynstat_vvel_sd              =   4.2653534841784E-02
(PID.TID 0000.0001) %MON dynstat_vvel_del2            =   4.0534918931913E-05
(PID.TID 0000.0001) %MON dynstat_wvel_max             =   1.4995967238792E-08
(PID.TID 0000.0001) %MON dynstat_wvel_min             =  -6.9976074690931E-09
(PID.TID 0000.0001) %MON dynstat_wvel_mean            =   1.2824319936852E-20
(PID.TID 0000.0001) %MON dynstat_wvel_sd              =   5.3699588527825E-09
(PID.TID 0000.0001) %MON dynstat_wvel_del2            =   1.7309977822546E-12
(PID.TID 0000.0001) %MON dynstat_theta_max            =   2.0000000000000E+01
(PID.TID 0000.0001) %MON dynstat_theta_min            =   2.0000000000000E+01
(PID.TID 0000.0001) %MON dynstat_theta_mean           =   2.0000000000000E+01
(PID.TID 0000.0001) %MON dynstat_theta_sd             =   3.8014036363165E-13
(PID.TID 0000.0001) %MON dynstat_theta_del2           =   0.0000000000000E+00
(PID.TID 0000.0001) %MON dynstat_salt_max             =   3.0000000000000E+01
(PID.TID 0000.0001) %MON dynstat_salt_min             =   3.0000000000000E+01
(PID.TID 0000.0001) %MON dynstat_salt_mean            =   2.9999999999999E+01
(PID.TID 0000.0001) %MON dynstat_salt_sd              =   5.5777604757167E-13
(PID.TID 0000.0001) %MON dynstat_salt_del2            =   0.0000000000000E+00
(PID.TID 0000.0001) %MON trAdv_CFL_u_max              =   8.8768093068620E-03
(PID.TID 0000.0001) %MON trAdv_CFL_v_max              =   7.2825900612528E-03
(PID.TID 0000.0001) %MON trAdv_CFL_w_max              =   3.9768570628060E-09
(PID.TID 0000.0001) %MON advcfl_uvel_max              =   8.8778262290853E-03
(PID.TID 0000.0001) %MON advcfl_vvel_max              =   7.2924887556400E-03
(PID.TID 0000.0001) %MON advcfl_wvel_max              =   7.1980642746203E-09
(PID.TID 0000.0001) %MON advcfl_W_hf_max              =   0.0000000000000E+00
(PID.TID 0000.0001) %MON pe_b_mean                    =   1.3346183571886E-05
(PID.TID 0000.0001) %MON ke_max                       =   1.0962162737275E-02
(PID.TID 0000.0001) %MON ke_mean                      =   1.9689105708971E-03
(PID.TID 0000.0001) %MON ke_vol                       =   6.8893493896486E+15
(PID.TID 0000.0001) %MON vort_r_min                   =  -1.0121497214123E-06
(PID.TID 0000.0001) %MON vort_r_max                   =   3.1944080866211E-06
(PID.TID 0000.0001) %MON vort_a_mean                  =   1.0600000000000E-04
(PID.TID 0000.0001) %MON vort_a_sd                    =   3.5627987583245E-06
(PID.TID 0000.0001) %MON vort_p_mean                  =   1.1652272308690E-04
(PID.TID 0000.0001) %MON vort_p_sd                    =   4.1787939221440E-05
(PID.TID 0000.0001) %MON surfExpan_theta_mean         =   2.5650371703200E-19
(PID.TID 0000.0001) %MON surfExpan_salt_mean          =   3.8475162808835E-19
(PID.TID 0000.0001) // =======================================================
(PID.TID 0000.0001) // End MONITOR dynamic field statistics
(PID.TID 0000.0001) // =======================================================
 cg2d: Sum(rhs),rhsMax =  -4.76535127655172E-03  1.96002204962480E-01
 cg2d: Sum(rhs),rhsMax =  -4.76611329609549E-03  1.96009584891244E-01
 cg2d: Sum(rhs),rhsMax =  -4.76687646721866E-03  1.96016966213319E-01
 cg2d: Sum(rhs),rhsMax =  -4.76764078450325E-03  1.96024348926857E-01
 cg2d: Sum(rhs),rhsMax =  -4.76840624138161E-03  1.96031733030000E-01
 cg2d: Sum(rhs),rhsMax =  -4.76917283256845E-03  1.96039118520894E-01
 cg2d: Sum(rhs),rhsMax =  -4.76994055197464E-03  1.96046505397681E-01
 cg2d: Sum(rhs),rhsMax =  -4.77070939377031E-03  1.96053893658498E-01
 cg2d: Sum(rhs),rhsMax =  -4.77147935209705E-03  1.96061283301483E-01
 cg2d: Sum(rhs),rhsMax =  -4.77225042122158E-03  1.96068674324776E-01
 cg2d: Sum(rhs),rhsMax =  -4.77302259484342E-03  1.96076066726508E-01
 cg2d: Sum(rhs),rhsMax =  -4.77379586722991E-03  1.96083460504817E-01
 cg2d: Sum(rhs),rhsMax =  -4.77457023251646E-03  1.96090855657829E-01
 cg2d: Sum(rhs),rhsMax =  -4.77534568515951E-03  1.96098252183677E-01
 cg2d: Sum(rhs),rhsMax =  -4.77612221898696E-03  1.96105650080494E-01
 cg2d: Sum(rhs),rhsMax =  -4.77689982773012E-03  1.96113049346400E-01
 cg2d: Sum(rhs),rhsMax =  -4.77767850569677E-03  1.96120449979524E-01
 cg2d: Sum(rhs),rhsMax =  -4.77845824729415E-03  1.96127851977990E-01
 cg2d: Sum(rhs),rhsMax =  -4.77923904583214E-03  1.96135255339913E-01
 cg2d: Sum(rhs),rhsMax =  -4.78002089645588E-03  1.96142660063425E-01
 cg2d: Sum(rhs),rhsMax =  -4.78080379231129E-03  1.96150066146640E-01
 cg2d: Sum(rhs),rhsMax =  -4.78158772804861E-03  1.96157473587672E-01
 cg2d: Sum(rhs),rhsMax =  -4.78237269771443E-03  1.96164882384640E-01
 cg2d: Sum(rhs),rhsMax =  -4.78315869476253E-03  1.96172292535657E-01
 cg2d: Sum(rhs),rhsMax =  -4.78394571394998E-03  1.96179704038838E-01
 cg2d: Sum(rhs),rhsMax =  -4.78473374920906E-03  1.96187116892292E-01
 cg2d: Sum(rhs),rhsMax =  -4.78552279449191E-03  1.96194531094127E-01
 cg2d: Sum(rhs),rhsMax =  -4.78631284403647E-03  1.96201946642459E-01
 cg2d: Sum(rhs),rhsMax =  -4.78710389178274E-03  1.96209363535384E-01
 cg2d: Sum(rhs),rhsMax =  -4.78789593211052E-03  1.96216781771014E-01
 cg2d: Sum(rhs),rhsMax =  -4.78868895865004E-03  1.96224201347447E-01
 cg2d: Sum(rhs),rhsMax =  -4.78948296562362E-03  1.96231622262791E-01
 cg2d: Sum(rhs),rhsMax =  -4.79027794725605E-03  1.96239044515140E-01
 cg2d: Sum(rhs),rhsMax =  -4.79107389760915E-03  1.96246468102595E-01
 cg2d: Sum(rhs),rhsMax =  -4.79187081083192E-03  1.96253893023259E-01
 cg2d: Sum(rhs),rhsMax =  -4.79266868101785E-03  1.96261319275218E-01
 cg2d: Sum(rhs),rhsMax =  -4.79346750245340E-03  1.96268746856575E-01
 cg2d: Sum(rhs),rhsMax =  -4.79426726937734E-03  1.96276175765414E-01
 cg2d: Sum(rhs),rhsMax =  -4.79506797504241E-03  1.96283605999833E-01
 cg2d: Sum(rhs),rhsMax =  -4.79586961386053E-03  1.96291037557921E-01
 cg2d: Sum(rhs),rhsMax =  -4.79667218067826E-03  1.96298470437766E-01
 cg2d: Sum(rhs),rhsMax =  -4.79747566895363E-03  1.96305904637452E-01
 cg2d: Sum(rhs),rhsMax =  -4.79828007303299E-03  1.96313340155067E-01
 cg2d: Sum(rhs),rhsMax =  -4.79908538733050E-03  1.96320776988694E-01
 cg2d: Sum(rhs),rhsMax =  -4.79989160590076E-03  1.96328215136414E-01
 cg2d: Sum(rhs),rhsMax =  -4.80069872240939E-03  1.96335654596311E-01
 cg2d: Sum(rhs),rhsMax =  -4.80150673149669E-03  1.96343095366463E-01
 cg2d: Sum(rhs),rhsMax =  -4.80231562736006E-03  1.96350537444947E-01
 cg2d: Sum(rhs),rhsMax =  -4.80312540391577E-03  1.96357980829840E-01
 cg2d: Sum(rhs),rhsMax =  -4.80393605613193E-03  1.96365425519217E-01
 cg2d: Sum(rhs),rhsMax =  -4.80474757740966E-03  1.96372871511147E-01
 cg2d: Sum(rhs),rhsMax =  -4.80555996169928E-03  1.96380318803713E-01
 cg2d: Sum(rhs),rhsMax =  -4.80637320408580E-03  1.96387767394978E-01
 cg2d: Sum(rhs),rhsMax =  -4.80718729818055E-03  1.96395217283011E-01
 cg2d: Sum(rhs),rhsMax =  -4.80800223826605E-03  1.96402668465882E-01
 cg2d: Sum(rhs),rhsMax =  -4.80881801879973E-03  1.96410120941660E-01
 cg2d: Sum(rhs),rhsMax =  -4.80963463429767E-03  1.96417574708405E-01
 cg2d: Sum(rhs),rhsMax =  -4.81045207849849E-03  1.96425029764184E-01
 cg2d: Sum(rhs),rhsMax =  -4.81127034575482E-03  1.96432486107057E-01
 cg2d: Sum(rhs),rhsMax =  -4.81208943064968E-03  1.96439943735087E-01
 cg2d: Sum(rhs),rhsMax =  -4.81290932742819E-03  1.96447402646333E-01
 cg2d: Sum(rhs),rhsMax =  -4.81373003042427E-03  1.96454862838852E-01
 cg2d: Sum(rhs),rhsMax =  -4.81455153375698E-03  1.96462324310696E-01
 cg2d: Sum(rhs),rhsMax =  -4.81537383200242E-03  1.96469787059928E-01
 cg2d: Sum(rhs),rhsMax =  -4.81619691956460E-03  1.96477251084598E-01
 cg2d: Sum(rhs),rhsMax =  -4.81702079050873E-03  1.96484716382759E-01
 cg2d: Sum(rhs),rhsMax =  -4.81784543933347E-03  1.96492182952463E-01
 cg2d: Sum(rhs),rhsMax =  -4.81867086019528E-03  1.96499650791755E-01
 cg2d: Sum(rhs),rhsMax =  -4.81949704775134E-03  1.96507119898695E-01
 cg2d: Sum(rhs),rhsMax =  -4.82032399681616E-03  1.96514590271318E-01
 cg2d: Sum(rhs),rhsMax =  -4.82115170104015E-03  1.96522061907675E-01
 cg2d: Sum(rhs),rhsMax =  -4.82198015518484E-03  1.96529534805808E-01
(PID.TID 0000.0001)      cg2d_init_res =   5.18364468171272E-04
(PID.TID 0000.0001)      cg2d_iters(min,last) =      -1      72
(PID.TID 0000.0001)      cg2d_last_res =   9.61085459278218E-08
(PID.TID 0000.0001) // =======================================================
(PID.TID 0000.0001) // Begin MONITOR dynamic field statistics
(PID.TID 0000.0001) // =======================================================
(PID.TID 0000.0001) %MON time_tsnumber                =                 13032
(PID.TID 0000.0001) %MON time_secondsf                =   1.5638400000000E+07
(PID.TID 0000.0001) %MON dynstat_eta_max              =   2.8995740384890E-01
(PID.TID 0000.0001) %MON dynstat_eta_min              =  -9.8264242077175E-02
(PID.TID 0000.0001) %MON dynstat_eta_mean             =   4.7368741962238E-06
(PID.TID 0000.0001) %MON dynstat_eta_sd               =   1.1453878456517E-01
(PID.TID 0000.0001) %MON dynstat_eta_del2             =   3.0481809193976E-05
(PID.TID 0000.0001) %MON dynstat_uvel_max             =   1.4834565214253E-01
(PID.TID 0000.0001) %MON dynstat_uvel_min             =  -1.0891458998079E-01
(PID.TID 0000.0001) %MON dynstat_uvel_mean            =  -5.9405136840804E-08
(PID.TID 0000.0001) %MON dynstat_uvel_sd              =   4.6999682475408E-02
(PID.TID 0000.0001) %MON dynstat_uvel_del2            =   6.9410195619201E-05
(PID.TID 0000.0001) %MON dynstat_vvel_max             =   9.1782162650747E-02
(PID.TID 0000.0001) %MON dynstat_vvel_min             =  -1.2201886212315E-01
(PID.TID 0000.0001) %MON dynstat_vvel_mean            =   1.3334078331007E-07
(PID.TID 0000.0001) %MON dynstat_vvel_sd              =   4.2810256300236E-02
(PID.TID 0000.0001) %MON dynstat_vvel_del2            =   4.0523607780286E-05
(PID.TID 0000.0001) %MON dynstat_wvel_max             =   1.4899597892654E-08
(PID.TID 0000.0001) %MON dynstat_wvel_min             =  -6.9244519513450E-09
(PID.TID 0000.0001) %MON dynstat_wvel_mean            =   1.7668841994439E-21
(PID.TID 0000.0001) %MON dynstat_wvel_sd              =   5.3425053648598E-09
(PID.TID 0000.0001) %MON dynstat_wvel_del2            =   1.7188993462420E-12
(PID.TID 0000.0001) %MON dynstat_theta_max            =   2.0000000000000E+01
(PID.TID 0000.0001) %MON dynstat_theta_min            =   2.0000000000000E+01
(PID.TID 0000.0001) %MON dynstat_theta_mean           =   2.0000000000000E+01
(PID.TID 0000.0001) %MON dynstat_theta_sd             =   3.8014036363165E-13
(PID.TID 0000.0001) %MON dynstat_theta_del2           =   0.0000000000000E+00
(PID.TID 0000.0001) %MON dynstat_salt_max             =   3.0000000000000E+01
(PID.TID 0000.0001) %MON dynstat_salt_min             =   3.0000000000000E+01
(PID.TID 0000.0001) %MON dynstat_salt_mean            =   2.9999999999999E+01
(PID.TID 0000.0001) %MON dynstat_salt_sd              =   5.5777604757167E-13
(PID.TID 0000.0001) %MON dynstat_salt_del2            =   0.0000000000000E+00
(PID.TID 0000.0001) %MON trAdv_CFL_u_max              =   8.8997147773936E-03
(PID.TID 0000.0001) %MON trAdv_CFL_v_max              =   7.3112064479823E-03
(PID.TID 0000.0001) %MON trAdv_CFL_w_max              =   3.9512964801024E-09
(PID.TID 0000.0001) %MON advcfl_uvel_max              =   8.9007391285516E-03
(PID.TID 0000.0001) %MON advcfl_vvel_max              =   7.3211317273889E-03
(PID.TID 0000.0001) %MON advcfl_wvel_max              =   7.1518069884740E-09
(PID.TID 0000.0001) %MON advcfl_W_hf_max              =   0.0000000000000E+00
(PID.TID 0000.0001) %MON pe_b_mean                    =   1.3450190478321E-05
(PID.TID 0000.0001) %MON ke_max                       =   1.1018685327098E-02
(PID.TID 0000.0001) %MON ke_mean                      =   1.9836835724181E-03
(PID.TID 0000.0001) %MON ke_vol                       =   6.8893493896486E+15
(PID.TID 0000.0001) %MON vort_r_min                   =  -1.0090223290004E-06
(PID.TID 0000.0001) %MON vort_r_max                   =   3.2024296154108E-06
(PID.TID 0000.0001) %MON vort_a_mean                  =   1.0600000000000E-04
(PID.TID 0000.0001) %MON vort_a_sd                    =   3.5630298401671E-06
(PID.TID 0000.0001) %MON vort_p_mean                  =   1.1652272308690E-04
(PID.TID 0000.0001) %MON vort_p_sd                    =   4.1787984628335E-05
(PID.TID 0000.0001) %MON surfExpan_theta_mean         =   3.5372080573224E-20
(PID.TID 0000.0001) %MON surfExpan_salt_mean          =   5.3074068596794E-20
(PID.TID 0000.0001) // =======================================================
(PID.TID 0000.0001) // End MONITOR dynamic field statistics
(PID.TID 0000.0001) // =======================================================
 cg2d: Sum(rhs),rhsMax =  -4.82280935370840E-03  1.96537008963760E-01
 cg2d: Sum(rhs),rhsMax =  -4.82363929080708E-03  1.96544484379575E-01
 cg2d: Sum(rhs),rhsMax =  -4.82446996165443E-03  1.96551961051290E-01
 cg2d: Sum(rhs),rhsMax =  -4.82530136034071E-03  1.96559438976952E-01
 cg2d: Sum(rhs),rhsMax =  -4.82613348107993E-03  1.96566918154588E-01
 cg2d: Sum(rhs),rhsMax =  -4.82696631874622E-03  1.96574398582234E-01
 cg2d: Sum(rhs),rhsMax =  -4.82779986764004E-03  1.96581880257936E-01
 cg2d: Sum(rhs),rhsMax =  -4.82863412254519E-03  1.96589363179715E-01
 cg2d: Sum(rhs),rhsMax =  -4.82946907804938E-03  1.96596847345613E-01
 cg2d: Sum(rhs),rhsMax =  -4.83030472809768E-03  1.96604332753654E-01
 cg2d: Sum(rhs),rhsMax =  -4.83114106821950E-03  1.96611819401878E-01
 cg2d: Sum(rhs),rhsMax =  -4.83197809262449E-03  1.96619307288299E-01
 cg2d: Sum(rhs),rhsMax =  -4.83281579570520E-03  1.96626796410953E-01
 cg2d: Sum(rhs),rhsMax =  -4.83365417218538E-03  1.96634286767864E-01
 cg2d: Sum(rhs),rhsMax =  -4.83449321731116E-03  1.96641778357055E-01
 cg2d: Sum(rhs),rhsMax =  -4.83533292499098E-03  1.96649271176552E-01
 cg2d: Sum(rhs),rhsMax =  -4.83617328983371E-03  1.96656765224375E-01
 cg2d: Sum(rhs),rhsMax =  -4.83701430704831E-03  1.96664260498545E-01
 cg2d: Sum(rhs),rhsMax =  -4.83785597121204E-03  1.96671756997080E-01
 cg2d: Sum(rhs),rhsMax =  -4.83869827724349E-03  1.96679254718001E-01
 cg2d: Sum(rhs),rhsMax =  -4.83954121956619E-03  1.96686753659323E-01
 cg2d: Sum(rhs),rhsMax =  -4.84038479245630E-03  1.96694253819061E-01
 cg2d: Sum(rhs),rhsMax =  -4.84122899214563E-03  1.96701755195230E-01
 cg2d: Sum(rhs),rhsMax =  -4.84207381272298E-03  1.96709257785845E-01
 cg2d: Sum(rhs),rhsMax =  -4.84291924802831E-03  1.96716761588913E-01
 cg2d: Sum(rhs),rhsMax =  -4.84376529431239E-03  1.96724266602450E-01
 cg2d: Sum(rhs),rhsMax =  -4.84461194613244E-03  1.96731772824460E-01
 cg2d: Sum(rhs),rhsMax =  -4.84545919791155E-03  1.96739280252960E-01
 cg2d: Sum(rhs),rhsMax =  -4.84630704475523E-03  1.96746788885945E-01
 cg2d: Sum(rhs),rhsMax =  -4.84715548143317E-03  1.96754298721426E-01
 cg2d: Sum(rhs),rhsMax =  -4.84800450288387E-03  1.96761809757407E-01
 cg2d: Sum(rhs),rhsMax =  -4.84885410423205E-03  1.96769321991892E-01
 cg2d: Sum(rhs),rhsMax =  -4.84970428007392E-03  1.96776835422887E-01
 cg2d: Sum(rhs),rhsMax =  -4.85055502581219E-03  1.96784350048385E-01
 cg2d: Sum(rhs),rhsMax =  -4.85140633661719E-03  1.96791865866390E-01
 cg2d: Sum(rhs),rhsMax =  -4.85225820704458E-03  1.96799382874895E-01
 cg2d: Sum(rhs),rhsMax =  -4.85311063222113E-03  1.96806901071906E-01
 cg2d: Sum(rhs),rhsMax =  -4.85396360748219E-03  1.96814420455412E-01
 cg2d: Sum(rhs),rhsMax =  -4.85481712723050E-03  1.96821941023411E-01
 cg2d: Sum(rhs),rhsMax =  -4.85567118742314E-03  1.96829462773893E-01
 cg2d: Sum(rhs),rhsMax =  -4.85652578274420E-03  1.96836985704859E-01
 cg2d: Sum(rhs),rhsMax =  -4.85738090799810E-03  1.96844509814287E-01
 cg2d: Sum(rhs),rhsMax =  -4.85823655892588E-03  1.96852035100181E-01
 cg2d: Sum(rhs),rhsMax =  -4.85909273049100E-03  1.96859561560517E-01
 cg2d: Sum(rhs),rhsMax =  -4.85994941779039E-03  1.96867089193290E-01
 cg2d: Sum(rhs),rhsMax =  -4.86080661589759E-03  1.96874617996484E-01
 cg2d: Sum(rhs),rhsMax =  -4.86166432004113E-03  1.96882147968085E-01
 cg2d: Sum(rhs),rhsMax =  -4.86252252608367E-03  1.96889679106082E-01
 cg2d: Sum(rhs),rhsMax =  -4.86338122835894E-03  1.96897211408453E-01
 cg2d: Sum(rhs),rhsMax =  -4.86424042299014E-03  1.96904744873177E-01
 cg2d: Sum(rhs),rhsMax =  -4.86510010472503E-03  1.96912279498240E-01
 cg2d: Sum(rhs),rhsMax =  -4.86596026925179E-03  1.96919815281618E-01
 cg2d: Sum(rhs),rhsMax =  -4.86682091160989E-03  1.96927352221290E-01
 cg2d: Sum(rhs),rhsMax =  -4.86768202683848E-03  1.96934890315238E-01
 cg2d: Sum(rhs),rhsMax =  -4.86854361139372E-03  1.96942429561434E-01
 cg2d: Sum(rhs),rhsMax =  -4.86940565966843E-03  1.96949969957852E-01
 cg2d: Sum(rhs),rhsMax =  -4.87026816746734E-03  1.96957511502469E-01
 cg2d: Sum(rhs),rhsMax =  -4.87113112998926E-03  1.96965054193256E-01
 cg2d: Sum(rhs),rhsMax =  -4.87199454314044E-03  1.96972598028184E-01
 cg2d: Sum(rhs),rhsMax =  -4.87285840180199E-03  1.96980143005226E-01
 cg2d: Sum(rhs),rhsMax =  -4.87372270231836E-03  1.96987689122349E-01
 cg2d: Sum(rhs),rhsMax =  -4.87458743978606E-03  1.96995236377523E-01
 cg2d: Sum(rhs),rhsMax =  -4.87545260950879E-03  1.97002784768714E-01
 cg2d: Sum(rhs),rhsMax =  -4.87631820769326E-03  1.97010334293892E-01
 cg2d: Sum(rhs),rhsMax =  -4.87718422904161E-03  1.97017884951016E-01
 cg2d: Sum(rhs),rhsMax =  -4.87805066972159E-03  1.97025436738053E-01
 cg2d: Sum(rhs),rhsMax =  -4.87891752515568E-03  1.97032989652972E-01
 cg2d: Sum(rhs),rhsMax =  -4.87978479109907E-03  1.97040543693720E-01
 cg2d: Sum(rhs),rhsMax =  -4.88065246326232E-03  1.97048098858272E-01
 cg2d: Sum(rhs),rhsMax =  -4.88152053759762E-03  1.97055655144580E-01
 cg2d: Sum(rhs),rhsMax =  -4.88238900874348E-03  1.97063212550606E-01
 cg2d: Sum(rhs),rhsMax =  -4.88325787349728E-03  1.97070771074304E-01
(PID.TID 0000.0001)      cg2d_init_res =   5.17136771822527E-04
(PID.TID 0000.0001)      cg2d_iters(min,last) =      -1      72
(PID.TID 0000.0001)      cg2d_last_res =   9.42832610788058E-08
(PID.TID 0000.0001) // =======================================================
(PID.TID 0000.0001) // Begin MONITOR dynamic field statistics
(PID.TID 0000.0001) // =======================================================
(PID.TID 0000.0001) %MON time_tsnumber                =                 13104
(PID.TID 0000.0001) %MON time_secondsf                =   1.5724800000000E+07
(PID.TID 0000.0001) %MON dynstat_eta_max              =   2.9120151948461E-01
(PID.TID 0000.0001) %MON dynstat_eta_min              =  -9.8553756425056E-02
(PID.TID 0000.0001) %MON dynstat_eta_mean             =   4.8103120274851E-06
(PID.TID 0000.0001) %MON dynstat_eta_sd               =   1.1497962795513E-01
(PID.TID 0000.0001) %MON dynstat_eta_del2             =   3.0567089803132E-05
(PID.TID 0000.0001) %MON dynstat_uvel_max             =   1.4873426251320E-01
(PID.TID 0000.0001) %MON dynstat_uvel_min             =  -1.0942698571577E-01
(PID.TID 0000.0001) %MON dynstat_uvel_mean            =  -5.4591049265289E-08
(PID.TID 0000.0001) %MON dynstat_uvel_sd              =   4.7178081614732E-02
(PID.TID 0000.0001) %MON dynstat_uvel_del2            =   6.9526676685696E-05
(PID.TID 0000.0001) %MON dynstat_vvel_max             =   9.2249030017787E-02
(PID.TID 0000.0001) %MON dynstat_vvel_min             =  -1.2248298527512E-01
(PID.TID 0000.0001) %MON dynstat_vvel_mean            =   1.3635855822002E-07
(PID.TID 0000.0001) %MON dynstat_vvel_sd              =   4.2965423269682E-02
(PID.TID 0000.0001) %MON dynstat_vvel_del2            =   4.0511483790455E-05
(PID.TID 0000.0001) %MON dynstat_wvel_max             =   1.4804812325165E-08
(PID.TID 0000.0001) %MON dynstat_wvel_min             =  -6.8289856729098E-09
(PID.TID 0000.0001) %MON dynstat_wvel_mean            =  -6.4612047228568E-21
(PID.TID 0000.0001) %MON dynstat_wvel_sd              =   5.3130872016163E-09
(PID.TID 0000.0001) %MON dynstat_wvel_del2            =   1.7077430276303E-12
(PID.TID 0000.0001) %MON dynstat_theta_max            =   2.0000000000000E+01
(PID.TID 0000.0001) %MON dynstat_theta_min            =   2.0000000000000E+01
(PID.TID 0000.0001) %MON dynstat_theta_mean           =   2.0000000000000E+01
(PID.TID 0000.0001) %MON dynstat_theta_sd             =   3.8014036363165E-13
(PID.TID 0000.0001) %MON dynstat_theta_del2           =   0.0000000000000E+00
(PID.TID 0000.0001) %MON dynstat_salt_max             =   3.0000000000000E+01
(PID.TID 0000.0001) %MON dynstat_salt_min             =   3.0000000000000E+01
(PID.TID 0000.0001) %MON dynstat_salt_mean            =   2.9999999999999E+01
(PID.TID 0000.0001) %MON dynstat_salt_sd              =   5.5777604757167E-13
(PID.TID 0000.0001) %MON dynstat_salt_del2            =   0.0000000000000E+00
(PID.TID 0000.0001) %MON trAdv_CFL_u_max              =   8.9230239699700E-03
(PID.TID 0000.0001) %MON trAdv_CFL_v_max              =   7.3390289102089E-03
(PID.TID 0000.0001) %MON trAdv_CFL_w_max              =   3.9261567609823E-09
(PID.TID 0000.0001) %MON advcfl_uvel_max              =   8.9240557507923E-03
(PID.TID 0000.0001) %MON advcfl_vvel_max              =   7.3489791165073E-03
(PID.TID 0000.0001) %MON advcfl_wvel_max              =   7.1063099160790E-09
(PID.TID 0000.0001) %MON advcfl_W_hf_max              =   0.0000000000000E+00
(PID.TID 0000.0001) %MON pe_b_mean                    =   1.3553925442485E-05
(PID.TID 0000.0001) %MON ke_max                       =   1.1076300915408E-02
(PID.TID 0000.0001) %MON ke_mean                      =   1.9984621167465E-03
(PID.TID 0000.0001) %MON ke_vol                       =   6.8893493896486E+15
(PID.TID 0000.0001) %MON vort_r_min                   =  -1.0059795548727E-06
(PID.TID 0000.0001) %MON vort_r_max                   =   3.2105925248967E-06
(PID.TID 0000.0001) %MON vort_a_mean                  =   1.0600000000000E-04
(PID.TID 0000.0001) %MON vort_a_sd                    =   3.5632639427482E-06
(PID.TID 0000.0001) %MON vort_p_mean                  =   1.1652272308690E-04
(PID.TID 0000.0001) %MON vort_p_sd                    =   4.1788033264164E-05
(PID.TID 0000.0001) %MON surfExpan_theta_mean         =  -1.2917903783697E-19
(PID.TID 0000.0001) %MON surfExpan_salt_mean          =  -1.9377495164008E-19
(PID.TID 0000.0001) // =======================================================
(PID.TID 0000.0001) // End MONITOR dynamic field statistics
(PID.TID 0000.0001) // =======================================================
 cg2d: Sum(rhs),rhsMax =  -4.88412712736505E-03  1.97078330713637E-01
 cg2d: Sum(rhs),rhsMax =  -4.88499676577799E-03  1.97085891466552E-01
 cg2d: Sum(rhs),rhsMax =  -4.88586678460939E-03  1.97093453331014E-01
 cg2d: Sum(rhs),rhsMax =  -4.88673717990829E-03  1.97101016304964E-01
 cg2d: Sum(rhs),rhsMax =  -4.88760794748582E-03  1.97108580386361E-01
 cg2d: Sum(rhs),rhsMax =  -4.88847908267457E-03  1.97116145573156E-01
 cg2d: Sum(rhs),rhsMax =  -4.88935058221417E-03  1.97123711863302E-01
 cg2d: Sum(rhs),rhsMax =  -4.89022244142116E-03  1.97131279254738E-01
 cg2d: Sum(rhs),rhsMax =  -4.89109465608084E-03  1.97138847745425E-01
 cg2d: Sum(rhs),rhsMax =  -4.89196722285377E-03  1.97146417333303E-01
 cg2d: Sum(rhs),rhsMax =  -4.89284013734735E-03  1.97153988016319E-01
 cg2d: Sum(rhs),rhsMax =  -4.89371339503628E-03  1.97161559792416E-01
 cg2d: Sum(rhs),rhsMax =  -4.89458699250535E-03  1.97169132659540E-01
 cg2d: Sum(rhs),rhsMax =  -4.89546092544367E-03  1.97176706615632E-01
 cg2d: Sum(rhs),rhsMax =  -4.89633518987886E-03  1.97184281658643E-01
 cg2d: Sum(rhs),rhsMax =  -4.89720978216755E-03  1.97191857786502E-01
 cg2d: Sum(rhs),rhsMax =  -4.89808469817788E-03  1.97199434997158E-01
 cg2d: Sum(rhs),rhsMax =  -4.89895993412851E-03  1.97207013288543E-01
 cg2d: Sum(rhs),rhsMax =  -4.89983548595714E-03  1.97214592658597E-01
 cg2d: Sum(rhs),rhsMax =  -4.90071134985053E-03  1.97222173105257E-01
 cg2d: Sum(rhs),rhsMax =  -4.90158752205989E-03  1.97229754626458E-01
 cg2d: Sum(rhs),rhsMax =  -4.90246399898707E-03  1.97237337220142E-01
 cg2d: Sum(rhs),rhsMax =  -4.90334077602999E-03  1.97244920884235E-01
 cg2d: Sum(rhs),rhsMax =  -4.90421785022037E-03  1.97252505616675E-01
 cg2d: Sum(rhs),rhsMax =  -4.90509521781182E-03  1.97260091415391E-01
 cg2d: Sum(rhs),rhsMax =  -4.90597287468322E-03  1.97267678278314E-01
 cg2d: Sum(rhs),rhsMax =  -4.90685081719283E-03  1.97275266203377E-01
 cg2d: Sum(rhs),rhsMax =  -4.90772904159610E-03  1.97282855188503E-01
 cg2d: Sum(rhs),rhsMax =  -4.90860754396767E-03  1.97290445231627E-01
 cg2d: Sum(rhs),rhsMax =  -4.90948632153691E-03  1.97298036330673E-01
 cg2d: Sum(rhs),rhsMax =  -4.91036537002334E-03  1.97305628483571E-01
 cg2d: Sum(rhs),rhsMax =  -4.91124468598247E-03  1.97313221688239E-01
 cg2d: Sum(rhs),rhsMax =  -4.91212426552481E-03  1.97320815942606E-01
 cg2d: Sum(rhs),rhsMax =  -4.91300410571495E-03  1.97328411244593E-01
 cg2d: Sum(rhs),rhsMax =  -4.91388420225301E-03  1.97336007592123E-01
 cg2d: Sum(rhs),rhsMax =  -4.91476455210852E-03  1.97343604983121E-01
 cg2d: Sum(rhs),rhsMax =  -4.91564515147221E-03  1.97351203415506E-01
 cg2d: Sum(rhs),rhsMax =  -4.91652599685943E-03  1.97358802887197E-01
 cg2d: Sum(rhs),rhsMax =  -4.91740708501082E-03  1.97366403396114E-01
 cg2d: Sum(rhs),rhsMax =  -4.91828841277661E-03  1.97374004940171E-01
 cg2d: Sum(rhs),rhsMax =  -4.91916997625448E-03  1.97381607517286E-01
 cg2d: Sum(rhs),rhsMax =  -4.92005177197551E-03  1.97389211125374E-01
 cg2d: Sum(rhs),rhsMax =  -4.92093379689826E-03  1.97396815762356E-01
 cg2d: Sum(rhs),rhsMax =  -4.92181604742302E-03  1.97404421426143E-01
 cg2d: Sum(rhs),rhsMax =  -4.92269852060754E-03  1.97412028114646E-01
 cg2d: Sum(rhs),rhsMax =  -4.92358121235578E-03  1.97419635825775E-01
 cg2d: Sum(rhs),rhsMax =  -4.92446411981109E-03  1.97427244557445E-01
 cg2d: Sum(rhs),rhsMax =  -4.92534723970059E-03  1.97434854307573E-01
 cg2d: Sum(rhs),rhsMax =  -4.92623056914545E-03  1.97442465074053E-01
 cg2d: Sum(rhs),rhsMax =  -4.92711410412543E-03  1.97450076854811E-01
 cg2d: Sum(rhs),rhsMax =  -4.92799784182027E-03  1.97457689647742E-01
 cg2d: Sum(rhs),rhsMax =  -4.92888177902012E-03  1.97465303450754E-01
 cg2d: Sum(rhs),rhsMax =  -4.92976591248877E-03  1.97472918261761E-01
 cg2d: Sum(rhs),rhsMax =  -4.93065023954568E-03  1.97480534078661E-01
 cg2d: Sum(rhs),rhsMax =  -4.93153475603064E-03  1.97488150899361E-01
 cg2d: Sum(rhs),rhsMax =  -4.93241945960327E-03  1.97495768721764E-01
 cg2d: Sum(rhs),rhsMax =  -4.93330434689314E-03  1.97503387543768E-01
 cg2d: Sum(rhs),rhsMax =  -4.93418941508465E-03  1.97511007363282E-01
 cg2d: Sum(rhs),rhsMax =  -4.93507466070500E-03  1.97518628178206E-01
 cg2d: Sum(rhs),rhsMax =  -4.93596008066494E-03  1.97526249986434E-01
 cg2d: Sum(rhs),rhsMax =  -4.93684567242240E-03  1.97533872785869E-01
 cg2d: Sum(rhs),rhsMax =  -4.93773143259624E-03  1.97541496574408E-01
 cg2d: Sum(rhs),rhsMax =  -4.93861735834757E-03  1.97549121349951E-01
 cg2d: Sum(rhs),rhsMax =  -4.93950344662505E-03  1.97556747110391E-01
 cg2d: Sum(rhs),rhsMax =  -4.94038969454022E-03  1.97564373853624E-01
 cg2d: Sum(rhs),rhsMax =  -4.94127609918374E-03  1.97572001577546E-01
 cg2d: Sum(rhs),rhsMax =  -4.94216265727496E-03  1.97579630280048E-01
 cg2d: Sum(rhs),rhsMax =  -4.94304936660033E-03  1.97587259959028E-01
 cg2d: Sum(rhs),rhsMax =  -4.94393622386474E-03  1.97594890612377E-01
 cg2d: Sum(rhs),rhsMax =  -4.94482322608795E-03  1.97602522237982E-01
 cg2d: Sum(rhs),rhsMax =  -4.94571037056758E-03  1.97610154833735E-01
 cg2d: Sum(rhs),rhsMax =  -4.94659765472885E-03  1.97617788397530E-01
(PID.TID 0000.0001)      cg2d_init_res =   5.16184487142257E-04
(PID.TID 0000.0001)      cg2d_iters(min,last) =      -1      72
(PID.TID 0000.0001)      cg2d_last_res =   9.27041634942725E-08
(PID.TID 0000.0001) // =======================================================
(PID.TID 0000.0001) // Begin MONITOR dynamic field statistics
(PID.TID 0000.0001) // =======================================================
(PID.TID 0000.0001) %MON time_tsnumber                =                 13176
(PID.TID 0000.0001) %MON time_secondsf                =   1.5811200000000E+07
(PID.TID 0000.0001) %MON dynstat_eta_max              =   2.9243954621943E-01
(PID.TID 0000.0001) %MON dynstat_eta_min              =  -9.8836504606915E-02
(PID.TID 0000.0001) %MON dynstat_eta_mean             =   4.8862391486448E-06
(PID.TID 0000.0001) %MON dynstat_eta_sd               =   1.1541738544405E-01
(PID.TID 0000.0001) %MON dynstat_eta_del2             =   3.0653063191665E-05
(PID.TID 0000.0001) %MON dynstat_uvel_max             =   1.4912953306399E-01
(PID.TID 0000.0001) %MON dynstat_uvel_min             =  -1.0994604429423E-01
(PID.TID 0000.0001) %MON dynstat_uvel_mean            =  -4.9134397630006E-08
(PID.TID 0000.0001) %MON dynstat_uvel_sd              =   4.7356369544373E-02
(PID.TID 0000.0001) %MON dynstat_uvel_del2            =   6.9646458197916E-05
(PID.TID 0000.0001) %MON dynstat_vvel_max             =   9.2704238517734E-02
(PID.TID 0000.0001) %MON dynstat_vvel_min             =  -1.2293315593130E-01
(PID.TID 0000.0001) %MON dynstat_vvel_mean            =   1.3847684088145E-07
(PID.TID 0000.0001) %MON dynstat_vvel_sd              =   4.3119484381684E-02
(PID.TID 0000.0001) %MON dynstat_vvel_del2            =   4.0497700916467E-05
(PID.TID 0000.0001) %MON dynstat_wvel_max             =   1.4711286376696E-08
(PID.TID 0000.0001) %MON dynstat_wvel_min             =  -6.7000452056527E-09
(PID.TID 0000.0001) %MON dynstat_wvel_mean            =  -9.1953855492951E-22
(PID.TID 0000.0001) %MON dynstat_wvel_sd              =   5.2820986015427E-09
(PID.TID 0000.0001) %MON dynstat_wvel_del2            =   1.6977506119676E-12
(PID.TID 0000.0001) %MON dynstat_theta_max            =   2.0000000000000E+01
(PID.TID 0000.0001) %MON dynstat_theta_min            =   2.0000000000000E+01
(PID.TID 0000.0001) %MON dynstat_theta_mean           =   2.0000000000000E+01
(PID.TID 0000.0001) %MON dynstat_theta_sd             =   3.8014036363165E-13
(PID.TID 0000.0001) %MON dynstat_theta_del2           =   0.0000000000000E+00
(PID.TID 0000.0001) %MON dynstat_salt_max             =   3.0000000000000E+01
(PID.TID 0000.0001) %MON dynstat_salt_min             =   3.0000000000000E+01
(PID.TID 0000.0001) %MON dynstat_salt_mean            =   2.9999999999999E+01
(PID.TID 0000.0001) %MON dynstat_salt_sd              =   5.5777604757167E-13
(PID.TID 0000.0001) %MON dynstat_salt_del2            =   0.0000000000000E+00
(PID.TID 0000.0001) %MON trAdv_CFL_u_max              =   8.9467328235498E-03
(PID.TID 0000.0001) %MON trAdv_CFL_v_max              =   7.3660158428990E-03
(PID.TID 0000.0001) %MON trAdv_CFL_w_max              =   3.9013525216684E-09
(PID.TID 0000.0001) %MON advcfl_uvel_max              =   8.9477719838393E-03
(PID.TID 0000.0001) %MON advcfl_vvel_max              =   7.3759893558781E-03
(PID.TID 0000.0001) %MON advcfl_wvel_max              =   7.0614174608141E-09
(PID.TID 0000.0001) %MON advcfl_W_hf_max              =   0.0000000000000E+00
(PID.TID 0000.0001) %MON pe_b_mean                    =   1.3657328582306E-05
(PID.TID 0000.0001) %MON ke_max                       =   1.1135008364213E-02
(PID.TID 0000.0001) %MON ke_mean                      =   2.0132435587268E-03
(PID.TID 0000.0001) %MON ke_vol                       =   6.8893493896486E+15
(PID.TID 0000.0001) %MON vort_r_min                   =  -1.0030773310724E-06
(PID.TID 0000.0001) %MON vort_r_max                   =   3.2188912114500E-06
(PID.TID 0000.0001) %MON vort_a_mean                  =   1.0600000000000E-04
(PID.TID 0000.0001) %MON vort_a_sd                    =   3.5635009058322E-06
(PID.TID 0000.0001) %MON vort_p_mean                  =   1.1652272308690E-04
(PID.TID 0000.0001) %MON vort_p_sd                    =   4.1788084745681E-05
(PID.TID 0000.0001) %MON surfExpan_theta_mean         =  -1.8380635285414E-20
(PID.TID 0000.0001) %MON surfExpan_salt_mean          =  -2.7577584660321E-20
(PID.TID 0000.0001) // =======================================================
(PID.TID 0000.0001) // End MONITOR dynamic field statistics
(PID.TID 0000.0001) // =======================================================
 cg2d: Sum(rhs),rhsMax =  -4.94748507581590E-03  1.97625422927252E-01
 cg2d: Sum(rhs),rhsMax =  -4.94837263079087E-03  1.97633058420791E-01
 cg2d: Sum(rhs),rhsMax =  -4.94926031722182E-03  1.97640694876034E-01
 cg2d: Sum(rhs),rhsMax =  -4.95014813166265E-03  1.97648332290863E-01
 cg2d: Sum(rhs),rhsMax =  -4.95103607178574E-03  1.97655970663170E-01
 cg2d: Sum(rhs),rhsMax =  -4.95192413523443E-03  1.97663609990835E-01
 cg2d: Sum(rhs),rhsMax =  -4.95281231862934E-03  1.97671250271747E-01
 cg2d: Sum(rhs),rhsMax =  -4.95370062001452E-03  1.97678891503781E-01
 cg2d: Sum(rhs),rhsMax =  -4.95458903647454E-03  1.97686533684828E-01
 cg2d: Sum(rhs),rhsMax =  -4.95547756529425E-03  1.97694176812766E-01
 cg2d: Sum(rhs),rhsMax =  -4.95636620343349E-03  1.97701820885476E-01
 cg2d: Sum(rhs),rhsMax =  -4.95725494936425E-03  1.97709465900837E-01
 cg2d: Sum(rhs),rhsMax =  -4.95814380011020E-03  1.97717111856730E-01
 cg2d: Sum(rhs),rhsMax =  -4.95903275242441E-03  1.97724758751028E-01
 cg2d: Sum(rhs),rhsMax =  -4.95992180449578E-03  1.97732406581617E-01
 cg2d: Sum(rhs),rhsMax =  -4.96081095380943E-03  1.97740055346371E-01
 cg2d: Sum(rhs),rhsMax =  -4.96170019793186E-03  1.97747705043161E-01
 cg2d: Sum(rhs),rhsMax =  -4.96258953392038E-03  1.97755355669866E-01
 cg2d: Sum(rhs),rhsMax =  -4.96347895928376E-03  1.97763007224362E-01
 cg2d: Sum(rhs),rhsMax =  -4.96436847180036E-03  1.97770659704521E-01
 cg2d: Sum(rhs),rhsMax =  -4.96525806926052E-03  1.97778313108213E-01
 cg2d: Sum(rhs),rhsMax =  -4.96614774867808E-03  1.97785967433318E-01
 cg2d: Sum(rhs),rhsMax =  -4.96703750831074E-03  1.97793622677697E-01
 cg2d: Sum(rhs),rhsMax =  -4.96792734557954E-03  1.97801278839230E-01
 cg2d: Sum(rhs),rhsMax =  -4.96881725815479E-03  1.97808935915782E-01
 cg2d: Sum(rhs),rhsMax =  -4.96970724347085E-03  1.97816593905222E-01
 cg2d: Sum(rhs),rhsMax =  -4.97059729939964E-03  1.97824252805424E-01
 cg2d: Sum(rhs),rhsMax =  -4.97148742334078E-03  1.97831912614246E-01
 cg2d: Sum(rhs),rhsMax =  -4.97237761371594E-03  1.97839573329559E-01
 cg2d: Sum(rhs),rhsMax =  -4.97326786752864E-03  1.97847234949232E-01
 cg2d: Sum(rhs),rhsMax =  -4.97415818281608E-03  1.97854897471126E-01
 cg2d: Sum(rhs),rhsMax =  -4.97504855747283E-03  1.97862560893106E-01
 cg2d: Sum(rhs),rhsMax =  -4.97593898927190E-03  1.97870225213044E-01
 cg2d: Sum(rhs),rhsMax =  -4.97682947567060E-03  1.97877890428794E-01
 cg2d: Sum(rhs),rhsMax =  -4.97772001500117E-03  1.97885556538222E-01
 cg2d: Sum(rhs),rhsMax =  -4.97861060451123E-03  1.97893223539185E-01
 cg2d: Sum(rhs),rhsMax =  -4.97950124240080E-03  1.97900891429547E-01
 cg2d: Sum(rhs),rhsMax =  -4.98039192679942E-03  1.97908560207176E-01
 cg2d: Sum(rhs),rhsMax =  -4.98128265499343E-03  1.97916229869918E-01
 cg2d: Sum(rhs),rhsMax =  -4.98217342508529E-03  1.97923900415637E-01
 cg2d: Sum(rhs),rhsMax =  -4.98306423545524E-03  1.97931571842200E-01
 cg2d: Sum(rhs),rhsMax =  -4.98395508318581E-03  1.97939244147449E-01
 cg2d: Sum(rhs),rhsMax =  -4.98484596687816E-03  1.97946917329249E-01
 cg2d: Sum(rhs),rhsMax =  -4.98573688417195E-03  1.97954591385457E-01
 cg2d: Sum(rhs),rhsMax =  -4.98662783363958E-03  1.97962266313926E-01
 cg2d: Sum(rhs),rhsMax =  -4.98751881279576E-03  1.97969942112507E-01
 cg2d: Sum(rhs),rhsMax =  -4.98840981944389E-03  1.97977618779059E-01
 cg2d: Sum(rhs),rhsMax =  -4.98930085217114E-03  1.97985296311435E-01
 cg2d: Sum(rhs),rhsMax =  -4.99019190865436E-03  1.97992974707485E-01
 cg2d: Sum(rhs),rhsMax =  -4.99108298708843E-03  1.98000653965060E-01
 cg2d: Sum(rhs),rhsMax =  -4.99197408547645E-03  1.98008334082012E-01
 cg2d: Sum(rhs),rhsMax =  -4.99286520199572E-03  1.98016015056193E-01
 cg2d: Sum(rhs),rhsMax =  -4.99375633492738E-03  1.98023696885451E-01
 cg2d: Sum(rhs),rhsMax =  -4.99464748185601E-03  1.98031379567632E-01
 cg2d: Sum(rhs),rhsMax =  -4.99553864146750E-03  1.98039063100585E-01
 cg2d: Sum(rhs),rhsMax =  -4.99642981156124E-03  1.98046747482164E-01
 cg2d: Sum(rhs),rhsMax =  -4.99732099056624E-03  1.98054432710208E-01
 cg2d: Sum(rhs),rhsMax =  -4.99821217677958E-03  1.98062118782572E-01
 cg2d: Sum(rhs),rhsMax =  -4.99910336841348E-03  1.98069805697092E-01
 cg2d: Sum(rhs),rhsMax =  -4.99999456333728E-03  1.98077493451618E-01
 cg2d: Sum(rhs),rhsMax =  -5.00088575962513E-03  1.98085182043993E-01
 cg2d: Sum(rhs),rhsMax =  -5.00177695586375E-03  1.98092871472057E-01
 cg2d: Sum(rhs),rhsMax =  -5.00266815031051E-03  1.98100561733659E-01
 cg2d: Sum(rhs),rhsMax =  -5.00355934157719E-03  1.98108252826633E-01
 cg2d: Sum(rhs),rhsMax =  -5.00445052737439E-03  1.98115944748830E-01
 cg2d: Sum(rhs),rhsMax =  -5.00534170648323E-03  1.98123637498085E-01
 cg2d: Sum(rhs),rhsMax =  -5.00623287682974E-03  1.98131331072239E-01
 cg2d: Sum(rhs),rhsMax =  -5.00712403728319E-03  1.98139025469132E-01
 cg2d: Sum(rhs),rhsMax =  -5.00801518562235E-03  1.98146720686602E-01
 cg2d: Sum(rhs),rhsMax =  -5.00890632044614E-03  1.98154416722487E-01
 cg2d: Sum(rhs),rhsMax =  -5.00979744048373E-03  1.98162113574627E-01
 cg2d: Sum(rhs),rhsMax =  -5.01068854329659E-03  1.98169811240856E-01
(PID.TID 0000.0001)      cg2d_init_res =   5.15462535341373E-04
(PID.TID 0000.0001)      cg2d_iters(min,last) =      -1      72
(PID.TID 0000.0001)      cg2d_last_res =   9.14055755734078E-08
(PID.TID 0000.0001) // =======================================================
(PID.TID 0000.0001) // Begin MONITOR dynamic field statistics
(PID.TID 0000.0001) // =======================================================
(PID.TID 0000.0001) %MON time_tsnumber                =                 13248
(PID.TID 0000.0001) %MON time_secondsf                =   1.5897600000000E+07
(PID.TID 0000.0001) %MON dynstat_eta_max              =   2.9367141437602E-01
(PID.TID 0000.0001) %MON dynstat_eta_min              =  -9.9112755359619E-02
(PID.TID 0000.0001) %MON dynstat_eta_mean             =   4.9633673076141E-06
(PID.TID 0000.0001) %MON dynstat_eta_sd               =   1.1585188746090E-01
(PID.TID 0000.0001) %MON dynstat_eta_del2             =   3.0739791709218E-05
(PID.TID 0000.0001) %MON dynstat_uvel_max             =   1.4953133659279E-01
(PID.TID 0000.0001) %MON dynstat_uvel_min             =  -1.1046991180925E-01
(PID.TID 0000.0001) %MON dynstat_uvel_mean            =  -4.3328773873086E-08
(PID.TID 0000.0001) %MON dynstat_uvel_sd              =   4.7534078372288E-02
(PID.TID 0000.0001) %MON dynstat_uvel_del2            =   6.9769723763877E-05
(PID.TID 0000.0001) %MON dynstat_vvel_max             =   9.3151866285600E-02
(PID.TID 0000.0001) %MON dynstat_vvel_min             =  -1.2336880031322E-01
(PID.TID 0000.0001) %MON dynstat_vvel_mean            =   1.3968570898743E-07
(PID.TID 0000.0001) %MON dynstat_vvel_sd              =   4.3272907094490E-02
(PID.TID 0000.0001) %MON dynstat_vvel_del2            =   4.0481385258234E-05
(PID.TID 0000.0001) %MON dynstat_wvel_max             =   1.4618548597209E-08
(PID.TID 0000.0001) %MON dynstat_wvel_min             =  -6.5232249474502E-09
(PID.TID 0000.0001) %MON dynstat_wvel_mean            =   4.0048757909972E-21
(PID.TID 0000.0001) %MON dynstat_wvel_sd              =   5.2498908120737E-09
(PID.TID 0000.0001) %MON dynstat_wvel_del2            =   1.6891298104977E-12
(PID.TID 0000.0001) %MON dynstat_theta_max            =   2.0000000000000E+01
(PID.TID 0000.0001) %MON dynstat_theta_min            =   2.0000000000000E+01
(PID.TID 0000.0001) %MON dynstat_theta_mean           =   2.0000000000000E+01
(PID.TID 0000.0001) %MON dynstat_theta_sd             =   3.8014036363165E-13
(PID.TID 0000.0001) %MON dynstat_theta_del2           =   0.0000000000000E+00
(PID.TID 0000.0001) %MON dynstat_salt_max             =   3.0000000000000E+01
(PID.TID 0000.0001) %MON dynstat_salt_min             =   3.0000000000000E+01
(PID.TID 0000.0001) %MON dynstat_salt_mean            =   2.9999999999999E+01
(PID.TID 0000.0001) %MON dynstat_salt_sd              =   5.5777604757167E-13
(PID.TID 0000.0001) %MON dynstat_salt_del2            =   0.0000000000000E+00
(PID.TID 0000.0001) %MON trAdv_CFL_u_max              =   8.9708337538229E-03
(PID.TID 0000.0001) %MON trAdv_CFL_v_max              =   7.3921327579361E-03
(PID.TID 0000.0001) %MON trAdv_CFL_w_max              =   3.8767591807461E-09
(PID.TID 0000.0001) %MON advcfl_uvel_max              =   8.9718801955676E-03
(PID.TID 0000.0001) %MON advcfl_vvel_max              =   7.4021280187933E-03
(PID.TID 0000.0001) %MON advcfl_wvel_max              =   7.0169033266604E-09
(PID.TID 0000.0001) %MON advcfl_W_hf_max              =   0.0000000000000E+00
(PID.TID 0000.0001) %MON pe_b_mean                    =   1.3760351306228E-05
(PID.TID 0000.0001) %MON ke_max                       =   1.1194798563054E-02
(PID.TID 0000.0001) %MON ke_mean                      =   2.0280253625139E-03
(PID.TID 0000.0001) %MON ke_vol                       =   6.8893493896486E+15
(PID.TID 0000.0001) %MON vort_r_min                   =  -1.0003663441824E-06
(PID.TID 0000.0001) %MON vort_r_max                   =   3.2273188941231E-06
(PID.TID 0000.0001) %MON vort_a_mean                  =   1.0600000000000E-04
(PID.TID 0000.0001) %MON vort_a_sd                    =   3.5637405115791E-06
(PID.TID 0000.0001) %MON vort_p_mean                  =   1.1652272308690E-04
(PID.TID 0000.0001) %MON vort_p_sd                    =   4.1788138684127E-05
(PID.TID 0000.0001) %MON surfExpan_theta_mean         =   8.0037270638261E-20
(PID.TID 0000.0001) %MON surfExpan_salt_mean          =   1.2005898497591E-19
(PID.TID 0000.0001) // =======================================================
(PID.TID 0000.0001) // End MONITOR dynamic field statistics
(PID.TID 0000.0001) // =======================================================
 cg2d: Sum(rhs),rhsMax =  -5.01157962828743E-03  1.98177509719013E-01
 cg2d: Sum(rhs),rhsMax =  -5.01247069324984E-03  1.98185209006929E-01
 cg2d: Sum(rhs),rhsMax =  -5.01336173697618E-03  1.98192909102444E-01
 cg2d: Sum(rhs),rhsMax =  -5.01425275759948E-03  1.98200610003388E-01
 cg2d: Sum(rhs),rhsMax =  -5.01514375400082E-03  1.98208311707594E-01
 cg2d: Sum(rhs),rhsMax =  -5.01603472455716E-03  1.98216014212901E-01
 cg2d: Sum(rhs),rhsMax =  -5.01692566737231E-03  1.98223717517139E-01
 cg2d: Sum(rhs),rhsMax =  -5.01781658098054E-03  1.98231421618137E-01
 cg2d: Sum(rhs),rhsMax =  -5.01870746443197E-03  1.98239126513725E-01
 cg2d: Sum(rhs),rhsMax =  -5.01959831618107E-03  1.98246832201740E-01
 cg2d: Sum(rhs),rhsMax =  -5.02048913464881E-03  1.98254538680003E-01
 cg2d: Sum(rhs),rhsMax =  -5.02137991814405E-03  1.98262245946351E-01
 cg2d: Sum(rhs),rhsMax =  -5.02227066559903E-03  1.98269953998608E-01
 cg2d: Sum(rhs),rhsMax =  -5.02316137536936E-03  1.98277662834608E-01
 cg2d: Sum(rhs),rhsMax =  -5.02405204610483E-03  1.98285372452171E-01
 cg2d: Sum(rhs),rhsMax =  -5.02494267654029E-03  1.98293082849124E-01
 cg2d: Sum(rhs),rhsMax =  -5.02583326552647E-03  1.98300794023297E-01
 cg2d: Sum(rhs),rhsMax =  -5.02672381119777E-03  1.98308505972516E-01
 cg2d: Sum(rhs),rhsMax =  -5.02761431281935E-03  1.98316218694599E-01
 cg2d: Sum(rhs),rhsMax =  -5.02850476876154E-03  1.98323932187383E-01
 cg2d: Sum(rhs),rhsMax =  -5.02939517749898E-03  1.98331646448678E-01
 cg2d: Sum(rhs),rhsMax =  -5.03028553817094E-03  1.98339361476313E-01
 cg2d: Sum(rhs),rhsMax =  -5.03117584885188E-03  1.98347077268111E-01
 cg2d: Sum(rhs),rhsMax =  -5.03206610890781E-03  1.98354793821897E-01
 cg2d: Sum(rhs),rhsMax =  -5.03295631704316E-03  1.98362511135486E-01
 cg2d: Sum(rhs),rhsMax =  -5.03384647166200E-03  1.98370229206697E-01
 cg2d: Sum(rhs),rhsMax =  -5.03473657196010E-03  1.98377948033359E-01
 cg2d: Sum(rhs),rhsMax =  -5.03562661622368E-03  1.98385667613284E-01
 cg2d: Sum(rhs),rhsMax =  -5.03651660366768E-03  1.98393387944295E-01
 cg2d: Sum(rhs),rhsMax =  -5.03740653284219E-03  1.98401109024206E-01
 cg2d: Sum(rhs),rhsMax =  -5.03829640255337E-03  1.98408830850836E-01
 cg2d: Sum(rhs),rhsMax =  -5.03918621178549E-03  1.98416553422008E-01
 cg2d: Sum(rhs),rhsMax =  -5.04007595940255E-03  1.98424276735531E-01
 cg2d: Sum(rhs),rhsMax =  -5.04096564403917E-03  1.98432000789222E-01
 cg2d: Sum(rhs),rhsMax =  -5.04185526479506E-03  1.98439725580903E-01
 cg2d: Sum(rhs),rhsMax =  -5.04274482046905E-03  1.98447451108380E-01
 cg2d: Sum(rhs),rhsMax =  -5.04363430964945E-03  1.98455177369470E-01
 cg2d: Sum(rhs),rhsMax =  -5.04452373194279E-03  1.98462904361991E-01
 cg2d: Sum(rhs),rhsMax =  -5.04541308581016E-03  1.98470632083747E-01
 cg2d: Sum(rhs),rhsMax =  -5.04630236990546E-03  1.98478360532558E-01
 cg2d: Sum(rhs),rhsMax =  -5.04719158383165E-03  1.98486089706239E-01
 cg2d: Sum(rhs),rhsMax =  -5.04808072631897E-03  1.98493819602587E-01
 cg2d: Sum(rhs),rhsMax =  -5.04896979616734E-03  1.98501550219428E-01
 cg2d: Sum(rhs),rhsMax =  -5.04985879242433E-03  1.98509281554563E-01
 cg2d: Sum(rhs),rhsMax =  -5.05074771426586E-03  1.98517013605804E-01
 cg2d: Sum(rhs),rhsMax =  -5.05163656031000E-03  1.98524746370961E-01
 cg2d: Sum(rhs),rhsMax =  -5.05252532953443E-03  1.98532479847844E-01
 cg2d: Sum(rhs),rhsMax =  -5.05341402118251E-03  1.98540214034259E-01
 cg2d: Sum(rhs),rhsMax =  -5.05430263447560E-03  1.98547948928007E-01
 cg2d: Sum(rhs),rhsMax =  -5.05519116844514E-03  1.98555684526905E-01
 cg2d: Sum(rhs),rhsMax =  -5.05607962190972E-03  1.98563420828753E-01
 cg2d: Sum(rhs),rhsMax =  -5.05696799402152E-03  1.98571157831359E-01
 cg2d: Sum(rhs),rhsMax =  -5.05785628369688E-03  1.98578895532531E-01
 cg2d: Sum(rhs),rhsMax =  -5.05874449028778E-03  1.98586633930069E-01
 cg2d: Sum(rhs),rhsMax =  -5.05963261281498E-03  1.98594373021774E-01
 cg2d: Sum(rhs),rhsMax =  -5.06052065026938E-03  1.98602112805457E-01
 cg2d: Sum(rhs),rhsMax =  -5.06140860192575E-03  1.98609853278917E-01
 cg2d: Sum(rhs),rhsMax =  -5.06229646697159E-03  1.98617594439955E-01
 cg2d: Sum(rhs),rhsMax =  -5.06318424405995E-03  1.98625336286376E-01
 cg2d: Sum(rhs),rhsMax =  -5.06407193325694E-03  1.98633078815983E-01
 cg2d: Sum(rhs),rhsMax =  -5.06495953296297E-03  1.98640822026570E-01
 cg2d: Sum(rhs),rhsMax =  -5.06584704255298E-03  1.98648565915941E-01
 cg2d: Sum(rhs),rhsMax =  -5.06673446126019E-03  1.98656310481893E-01
 cg2d: Sum(rhs),rhsMax =  -5.06762178805480E-03  1.98664055722231E-01
 cg2d: Sum(rhs),rhsMax =  -5.06850902279494E-03  1.98671801634752E-01
 cg2d: Sum(rhs),rhsMax =  -5.06939616374543E-03  1.98679548217245E-01
 cg2d: Sum(rhs),rhsMax =  -5.07028321114148E-03  1.98687295467516E-01
 cg2d: Sum(rhs),rhsMax =  -5.07117016329321E-03  1.98695043383364E-01
 cg2d: Sum(rhs),rhsMax =  -5.07205702000700E-03  1.98702791962583E-01
 cg2d: Sum(rhs),rhsMax =  -5.07294378028277E-03  1.98710541202961E-01
 cg2d: Sum(rhs),rhsMax =  -5.07383044386882E-03  1.98718291102307E-01
 cg2d: Sum(rhs),rhsMax =  -5.07471700936222E-03  1.98726041658405E-01
(PID.TID 0000.0001)      cg2d_init_res =   5.14943168043015E-04
(PID.TID 0000.0001)      cg2d_iters(min,last) =      -1      72
(PID.TID 0000.0001)      cg2d_last_res =   9.03364382940783E-08
(PID.TID 0000.0001) // =======================================================
(PID.TID 0000.0001) // Begin MONITOR dynamic field statistics
(PID.TID 0000.0001) // =======================================================
(PID.TID 0000.0001) %MON time_tsnumber                =                 13320
(PID.TID 0000.0001) %MON time_secondsf                =   1.5984000000000E+07
(PID.TID 0000.0001) %MON dynstat_eta_max              =   2.9489711289163E-01
(PID.TID 0000.0001) %MON dynstat_eta_min              =  -9.9384688386985E-02
(PID.TID 0000.0001) %MON dynstat_eta_mean             =   5.0408853641462E-06
(PID.TID 0000.0001) %MON dynstat_eta_sd               =   1.1628301972693E-01
(PID.TID 0000.0001) %MON dynstat_eta_del2             =   3.0827315399122E-05
(PID.TID 0000.0001) %MON dynstat_uvel_max             =   1.4993949129866E-01
(PID.TID 0000.0001) %MON dynstat_uvel_min             =  -1.1099645456129E-01
(PID.TID 0000.0001) %MON dynstat_uvel_mean            =  -3.7461412691767E-08
(PID.TID 0000.0001) %MON dynstat_uvel_sd              =   4.7710750069194E-02
(PID.TID 0000.0001) %MON dynstat_uvel_del2            =   6.9896598227524E-05
(PID.TID 0000.0001) %MON dynstat_vvel_max             =   9.3594223177087E-02
(PID.TID 0000.0001) %MON dynstat_vvel_min             =  -1.2378948202553E-01
(PID.TID 0000.0001) %MON dynstat_vvel_mean            =   1.4002177846601E-07
(PID.TID 0000.0001) %MON dynstat_vvel_sd              =   4.3426152036165E-02
(PID.TID 0000.0001) %MON dynstat_vvel_del2            =   4.0461660479436E-05
(PID.TID 0000.0001) %MON dynstat_wvel_max             =   1.4526076908223E-08
(PID.TID 0000.0001) %MON dynstat_wvel_min             =  -6.3068484202086E-09
(PID.TID 0000.0001) %MON dynstat_wvel_mean            =  -1.3397453434057E-20
(PID.TID 0000.0001) %MON dynstat_wvel_sd              =   5.2167490707115E-09
(PID.TID 0000.0001) %MON dynstat_wvel_del2            =   1.6820464790767E-12
(PID.TID 0000.0001) %MON dynstat_theta_max            =   2.0000000000000E+01
(PID.TID 0000.0001) %MON dynstat_theta_min            =   2.0000000000000E+01
(PID.TID 0000.0001) %MON dynstat_theta_mean           =   2.0000000000000E+01
(PID.TID 0000.0001) %MON dynstat_theta_sd             =   3.8014036363165E-13
(PID.TID 0000.0001) %MON dynstat_theta_del2           =   0.0000000000000E+00
(PID.TID 0000.0001) %MON dynstat_salt_max             =   3.0000000000000E+01
(PID.TID 0000.0001) %MON dynstat_salt_min             =   3.0000000000000E+01
(PID.TID 0000.0001) %MON dynstat_salt_mean            =   2.9999999999999E+01
(PID.TID 0000.0001) %MON dynstat_salt_sd              =   5.5777604757167E-13
(PID.TID 0000.0001) %MON dynstat_salt_del2            =   0.0000000000000E+00
(PID.TID 0000.0001) %MON trAdv_CFL_u_max              =   8.9953158974341E-03
(PID.TID 0000.0001) %MON trAdv_CFL_v_max              =   7.4173533831939E-03
(PID.TID 0000.0001) %MON trAdv_CFL_w_max              =   3.8522383011134E-09
(PID.TID 0000.0001) %MON advcfl_uvel_max              =   8.9963694779198E-03
(PID.TID 0000.0001) %MON advcfl_vvel_max              =   7.4273689215321E-03
(PID.TID 0000.0001) %MON advcfl_wvel_max              =   6.9725169159472E-09
(PID.TID 0000.0001) %MON advcfl_W_hf_max              =   0.0000000000000E+00
(PID.TID 0000.0001) %MON pe_b_mean                    =   1.3862957664980E-05
(PID.TID 0000.0001) %MON ke_max                       =   1.1255654793640E-02
(PID.TID 0000.0001) %MON ke_mean                      =   2.0428051208076E-03
(PID.TID 0000.0001) %MON ke_vol                       =   6.8893493896486E+15
(PID.TID 0000.0001) %MON vort_r_min                   =  -9.9789099502468E-07
(PID.TID 0000.0001) %MON vort_r_max                   =   3.2358677677565E-06
(PID.TID 0000.0001) %MON vort_a_mean                  =   1.0600000000000E-04
(PID.TID 0000.0001) %MON vort_a_sd                    =   3.5639824907444E-06
(PID.TID 0000.0001) %MON vort_p_mean                  =   1.1652272308690E-04
(PID.TID 0000.0001) %MON vort_p_sd                    =   4.1788194708476E-05
(PID.TID 0000.0001) %MON surfExpan_theta_mean         =  -2.6791155960382E-19
(PID.TID 0000.0001) %MON surfExpan_salt_mean          =  -4.0187870808950E-19
(PID.TID 0000.0001) // =======================================================
(PID.TID 0000.0001) // End MONITOR dynamic field statistics
(PID.TID 0000.0001) // =======================================================
 cg2d: Sum(rhs),rhsMax =  -5.07560347659873E-03  1.98733792869056E-01
 cg2d: Sum(rhs),rhsMax =  -5.07648984440662E-03  1.98741544732048E-01
 cg2d: Sum(rhs),rhsMax =  -5.07737611233912E-03  1.98749297245176E-01
 cg2d: Sum(rhs),rhsMax =  -5.07826227977481E-03  1.98757050406237E-01
 cg2d: Sum(rhs),rhsMax =  -5.07914834606877E-03  1.98764804213019E-01
 cg2d: Sum(rhs),rhsMax =  -5.08003431070580E-03  1.98772558663316E-01
 cg2d: Sum(rhs),rhsMax =  -5.08092017234691E-03  1.98780313754919E-01
 cg2d: Sum(rhs),rhsMax =  -5.08180593058903E-03  1.98788069485613E-01
 cg2d: Sum(rhs),rhsMax =  -5.08269158538097E-03  1.98795825853196E-01
 cg2d: Sum(rhs),rhsMax =  -5.08357713548335E-03  1.98803582855453E-01
 cg2d: Sum(rhs),rhsMax =  -5.08446258071436E-03  1.98811340490173E-01
 cg2d: Sum(rhs),rhsMax =  -5.08534792027283E-03  1.98819098755149E-01
 cg2d: Sum(rhs),rhsMax =  -5.08623315344820E-03  1.98826857648163E-01
 cg2d: Sum(rhs),rhsMax =  -5.08711827967897E-03  1.98834617167005E-01
 cg2d: Sum(rhs),rhsMax =  -5.08800329868714E-03  1.98842377309470E-01
 cg2d: Sum(rhs),rhsMax =  -5.08888820920841E-03  1.98850138073331E-01
 cg2d: Sum(rhs),rhsMax =  -5.08977301144370E-03  1.98857899456381E-01
 cg2d: Sum(rhs),rhsMax =  -5.09065770459452E-03  1.98865661456403E-01
 cg2d: Sum(rhs),rhsMax =  -5.09154228751708E-03  1.98873424071189E-01
 cg2d: Sum(rhs),rhsMax =  -5.09242676050011E-03  1.98881187298511E-01
 cg2d: Sum(rhs),rhsMax =  -5.09331112285221E-03  1.98888951136165E-01
 cg2d: Sum(rhs),rhsMax =  -5.09419537364809E-03  1.98896715581930E-01
 cg2d: Sum(rhs),rhsMax =  -5.09507951264759E-03  1.98904480633588E-01
 cg2d: Sum(rhs),rhsMax =  -5.09596353967549E-03  1.98912246288924E-01
 cg2d: Sum(rhs),rhsMax =  -5.09684745383529E-03  1.98920012545715E-01
 cg2d: Sum(rhs),rhsMax =  -5.09773125444131E-03  1.98927779401748E-01
 cg2d: Sum(rhs),rhsMax =  -5.09861494130305E-03  1.98935546854802E-01
 cg2d: Sum(rhs),rhsMax =  -5.09949851380008E-03  1.98943314902658E-01
 cg2d: Sum(rhs),rhsMax =  -5.10038197153472E-03  1.98951083543095E-01
 cg2d: Sum(rhs),rhsMax =  -5.10126531404254E-03  1.98958852773890E-01
 cg2d: Sum(rhs),rhsMax =  -5.10214854088703E-03  1.98966622592826E-01
 cg2d: Sum(rhs),rhsMax =  -5.10303165208394E-03  1.98974392997681E-01
 cg2d: Sum(rhs),rhsMax =  -5.10391464624673E-03  1.98982163986232E-01
 cg2d: Sum(rhs),rhsMax =  -5.10479752400073E-03  1.98989935556262E-01
 cg2d: Sum(rhs),rhsMax =  -5.10568028406820E-03  1.98997707705539E-01
 cg2d: Sum(rhs),rhsMax =  -5.10656292643854E-03  1.99005480431847E-01
 cg2d: Sum(rhs),rhsMax =  -5.10744545072627E-03  1.99013253732953E-01
 cg2d: Sum(rhs),rhsMax =  -5.10832785634105E-03  1.99021027606642E-01
 cg2d: Sum(rhs),rhsMax =  -5.10921014323833E-03  1.99028802050688E-01
 cg2d: Sum(rhs),rhsMax =  -5.11009231070505E-03  1.99036577062864E-01
 cg2d: Sum(rhs),rhsMax =  -5.11097435842882E-03  1.99044352640939E-01
 cg2d: Sum(rhs),rhsMax =  -5.11185628617152E-03  1.99052128782693E-01
 cg2d: Sum(rhs),rhsMax =  -5.11273809380791E-03  1.99059905485897E-01
 cg2d: Sum(rhs),rhsMax =  -5.11361978033482E-03  1.99067682748325E-01
 cg2d: Sum(rhs),rhsMax =  -5.11450134590358E-03  1.99075460567747E-01
 cg2d: Sum(rhs),rhsMax =  -5.11538279005866E-03  1.99083238941940E-01
 cg2d: Sum(rhs),rhsMax =  -5.11626411239213E-03  1.99091017868666E-01
 cg2d: Sum(rhs),rhsMax =  -5.11714531267020E-03  1.99098797345705E-01
 cg2d: Sum(rhs),rhsMax =  -5.11802639063481E-03  1.99106577370825E-01
 cg2d: Sum(rhs),rhsMax =  -5.11890734567273E-03  1.99114357941789E-01
 cg2d: Sum(rhs),rhsMax =  -5.11978817805537E-03  1.99122139056372E-01
 cg2d: Sum(rhs),rhsMax =  -5.12066888677158E-03  1.99129920712348E-01
 cg2d: Sum(rhs),rhsMax =  -5.12154947183317E-03  1.99137702907477E-01
 cg2d: Sum(rhs),rhsMax =  -5.12242993310553E-03  1.99145485639531E-01
 cg2d: Sum(rhs),rhsMax =  -5.12331027052892E-03  1.99153268906276E-01
 cg2d: Sum(rhs),rhsMax =  -5.12419048348609E-03  1.99161052705476E-01
 cg2d: Sum(rhs),rhsMax =  -5.12507057205438E-03  1.99168837034907E-01
 cg2d: Sum(rhs),rhsMax =  -5.12595053506645E-03  1.99176621892321E-01
 cg2d: Sum(rhs),rhsMax =  -5.12683037336398E-03  1.99184407275498E-01
 cg2d: Sum(rhs),rhsMax =  -5.12771008616138E-03  1.99192193182196E-01
 cg2d: Sum(rhs),rhsMax =  -5.12858967342588E-03  1.99199979610179E-01
 cg2d: Sum(rhs),rhsMax =  -5.12946913455118E-03  1.99207766557215E-01
 cg2d: Sum(rhs),rhsMax =  -5.13034847001630E-03  1.99215554021065E-01
 cg2d: Sum(rhs),rhsMax =  -5.13122767851006E-03  1.99223341999491E-01
 cg2d: Sum(rhs),rhsMax =  -5.13210676101909E-03  1.99231130490256E-01
 cg2d: Sum(rhs),rhsMax =  -5.13298571654563E-03  1.99238919491125E-01
 cg2d: Sum(rhs),rhsMax =  -5.13386454526476E-03  1.99246708999859E-01
 cg2d: Sum(rhs),rhsMax =  -5.13474324679139E-03  1.99254499014220E-01
 cg2d: Sum(rhs),rhsMax =  -5.13562182078609E-03  1.99262289531966E-01
 cg2d: Sum(rhs),rhsMax =  -5.13650026779842E-03  1.99270080550864E-01
 cg2d: Sum(rhs),rhsMax =  -5.13737858687299E-03  1.99277872068664E-01
 cg2d: Sum(rhs),rhsMax =  -5.13825677815593E-03  1.99285664083131E-01
(PID.TID 0000.0001)      cg2d_init_res =   5.14607243113117E-04
(PID.TID 0000.0001)      cg2d_iters(min,last) =      -1      72
(PID.TID 0000.0001)      cg2d_last_res =   8.93920774198475E-08
(PID.TID 0000.0001) // =======================================================
(PID.TID 0000.0001) // Begin MONITOR dynamic field statistics
(PID.TID 0000.0001) // =======================================================
(PID.TID 0000.0001) %MON time_tsnumber                =                 13392
(PID.TID 0000.0001) %MON time_secondsf                =   1.6070400000000E+07
(PID.TID 0000.0001) %MON dynstat_eta_max              =   2.9611669249673E-01
(PID.TID 0000.0001) %MON dynstat_eta_min              =  -9.9653451968722E-02
(PID.TID 0000.0001) %MON dynstat_eta_mean             =   5.1183557299852E-06
(PID.TID 0000.0001) %MON dynstat_eta_sd               =   1.1671072557531E-01
(PID.TID 0000.0001) %MON dynstat_eta_del2             =   3.0915651181342E-05
(PID.TID 0000.0001) %MON dynstat_uvel_max             =   1.5035376474915E-01
(PID.TID 0000.0001) %MON dynstat_uvel_min             =  -1.1152339437614E-01
(PID.TID 0000.0001) %MON dynstat_uvel_mean            =  -3.1798641618193E-08
(PID.TID 0000.0001) %MON dynstat_uvel_sd              =   4.7885959704826E-02
(PID.TID 0000.0001) %MON dynstat_uvel_del2            =   7.0027144000836E-05
(PID.TID 0000.0001) %MON dynstat_vvel_max             =   9.4028114375480E-02
(PID.TID 0000.0001) %MON dynstat_vvel_min             =  -1.2419492249028E-01
(PID.TID 0000.0001) %MON dynstat_vvel_mean            =   1.3956427182220E-07
(PID.TID 0000.0001) %MON dynstat_vvel_sd              =   4.3579647735169E-02
(PID.TID 0000.0001) %MON dynstat_vvel_del2            =   4.0437673627535E-05
(PID.TID 0000.0001) %MON dynstat_wvel_max             =   1.4433355279034E-08
(PID.TID 0000.0001) %MON dynstat_wvel_min             =  -6.0729347036977E-09
(PID.TID 0000.0001) %MON dynstat_wvel_mean            =   6.6660747203665E-21
(PID.TID 0000.0001) %MON dynstat_wvel_sd              =   5.1828970101406E-09
(PID.TID 0000.0001) %MON dynstat_wvel_del2            =   1.6766219480201E-12
(PID.TID 0000.0001) %MON dynstat_theta_max            =   2.0000000000000E+01
(PID.TID 0000.0001) %MON dynstat_theta_min            =   2.0000000000000E+01
(PID.TID 0000.0001) %MON dynstat_theta_mean           =   2.0000000000000E+01
(PID.TID 0000.0001) %MON dynstat_theta_sd             =   3.8014036363165E-13
(PID.TID 0000.0001) %MON dynstat_theta_del2           =   0.0000000000000E+00
(PID.TID 0000.0001) %MON dynstat_salt_max             =   3.0000000000000E+01
(PID.TID 0000.0001) %MON dynstat_salt_min             =   3.0000000000000E+01
(PID.TID 0000.0001) %MON dynstat_salt_mean            =   2.9999999999999E+01
(PID.TID 0000.0001) %MON dynstat_salt_sd              =   5.5777604757167E-13
(PID.TID 0000.0001) %MON dynstat_salt_del2            =   0.0000000000000E+00
(PID.TID 0000.0001) %MON trAdv_CFL_u_max              =   9.0201653501578E-03
(PID.TID 0000.0001) %MON trAdv_CFL_v_max              =   7.4416608856739E-03
(PID.TID 0000.0001) %MON trAdv_CFL_w_max              =   3.8284388941161E-09
(PID.TID 0000.0001) %MON advcfl_uvel_max              =   9.0212258849491E-03
(PID.TID 0000.0001) %MON advcfl_vvel_max              =   7.4516953494168E-03
(PID.TID 0000.0001) %MON advcfl_wvel_max              =   6.9280105339363E-09
(PID.TID 0000.0001) %MON advcfl_W_hf_max              =   0.0000000000000E+00
(PID.TID 0000.0001) %MON pe_b_mean                    =   1.3965125160694E-05
(PID.TID 0000.0001) %MON ke_max                       =   1.1317553068016E-02
(PID.TID 0000.0001) %MON ke_mean                      =   2.0575805713086E-03
(PID.TID 0000.0001) %MON ke_vol                       =   6.8893493896486E+15
(PID.TID 0000.0001) %MON vort_r_min                   =  -9.9568852655857E-07
(PID.TID 0000.0001) %MON vort_r_max                   =   3.2445291515969E-06
(PID.TID 0000.0001) %MON vort_a_mean                  =   1.0600000000000E-04
(PID.TID 0000.0001) %MON vort_a_sd                    =   3.5642265299571E-06
(PID.TID 0000.0001) %MON vort_p_mean                  =   1.1652272308690E-04
(PID.TID 0000.0001) %MON vort_p_sd                    =   4.1788252486496E-05
(PID.TID 0000.0001) %MON surfExpan_theta_mean         =   1.3332244937677E-19
(PID.TID 0000.0001) %MON surfExpan_salt_mean          =   1.9996977900721E-19
(PID.TID 0000.0001) // =======================================================
(PID.TID 0000.0001) // End MONITOR dynamic field statistics
(PID.TID 0000.0001) // =======================================================
 cg2d: Sum(rhs),rhsMax =  -5.13913484122845E-03  1.99293456592028E-01
 cg2d: Sum(rhs),rhsMax =  -5.14001277617603E-03  1.99301249593110E-01
 cg2d: Sum(rhs),rhsMax =  -5.14089058301554E-03  1.99309043084132E-01
 cg2d: Sum(rhs),rhsMax =  -5.14176826124701E-03  1.99316837062849E-01
 cg2d: Sum(rhs),rhsMax =  -5.14264581081105E-03  1.99324631527029E-01
 cg2d: Sum(rhs),rhsMax =  -5.14352323163854E-03  1.99332426474424E-01
 cg2d: Sum(rhs),rhsMax =  -5.14440052369688E-03  1.99340221902789E-01
 cg2d: Sum(rhs),rhsMax =  -5.14527768658697E-03  1.99348017809882E-01
 cg2d: Sum(rhs),rhsMax =  -5.14615472044255E-03  1.99355814193458E-01
 cg2d: Sum(rhs),rhsMax =  -5.14703162481812E-03  1.99363611051268E-01
 cg2d: Sum(rhs),rhsMax =  -5.14790840003240E-03  1.99371408381070E-01
 cg2d: Sum(rhs),rhsMax =  -5.14878504552634E-03  1.99379206180619E-01
 cg2d: Sum(rhs),rhsMax =  -5.14966156162273E-03  1.99387004447665E-01
 cg2d: Sum(rhs),rhsMax =  -5.15053794796047E-03  1.99394803179962E-01
 cg2d: Sum(rhs),rhsMax =  -5.15141420451442E-03  1.99402602375269E-01
 cg2d: Sum(rhs),rhsMax =  -5.15229033130892E-03  1.99410402031327E-01
 cg2d: Sum(rhs),rhsMax =  -5.15316632788363E-03  1.99418202145898E-01
 cg2d: Sum(rhs),rhsMax =  -5.15404219493501E-03  1.99426002716730E-01
 cg2d: Sum(rhs),rhsMax =  -5.15491793132622E-03  1.99433803741571E-01
 cg2d: Sum(rhs),rhsMax =  -5.15579353756112E-03  1.99441605218172E-01
 cg2d: Sum(rhs),rhsMax =  -5.15666901349686E-03  1.99449407144286E-01
 cg2d: Sum(rhs),rhsMax =  -5.15754435922540E-03  1.99457209517667E-01
 cg2d: Sum(rhs),rhsMax =  -5.15841957454909E-03  1.99465012336045E-01
 cg2d: Sum(rhs),rhsMax =  -5.15929465918040E-03  1.99472815597189E-01
 cg2d: Sum(rhs),rhsMax =  -5.16016961379649E-03  1.99480619298838E-01
 cg2d: Sum(rhs),rhsMax =  -5.16104443773243E-03  1.99488423438746E-01
 cg2d: Sum(rhs),rhsMax =  -5.16191913134855E-03  1.99496228014649E-01
 cg2d: Sum(rhs),rhsMax =  -5.16279369427516E-03  1.99504033024309E-01
 cg2d: Sum(rhs),rhsMax =  -5.16366812611926E-03  1.99511838465456E-01
 cg2d: Sum(rhs),rhsMax =  -5.16454242749069E-03  1.99519644335846E-01
 cg2d: Sum(rhs),rhsMax =  -5.16541659794399E-03  1.99527450633221E-01
 cg2d: Sum(rhs),rhsMax =  -5.16629063785074E-03  1.99535257355327E-01
 cg2d: Sum(rhs),rhsMax =  -5.16716454704634E-03  1.99543064499911E-01
 cg2d: Sum(rhs),rhsMax =  -5.16803832554024E-03  1.99550872064713E-01
 cg2d: Sum(rhs),rhsMax =  -5.16891197305250E-03  1.99558680047478E-01
 cg2d: Sum(rhs),rhsMax =  -5.16978549001910E-03  1.99566488445951E-01
 cg2d: Sum(rhs),rhsMax =  -5.17065887582718E-03  1.99574297257871E-01
 cg2d: Sum(rhs),rhsMax =  -5.17153213123126E-03  1.99582106480985E-01
 cg2d: Sum(rhs),rhsMax =  -5.17240525570924E-03  1.99589916113031E-01
 cg2d: Sum(rhs),rhsMax =  -5.17327824931346E-03  1.99597726151749E-01
 cg2d: Sum(rhs),rhsMax =  -5.17415111207322E-03  1.99605536594886E-01
 cg2d: Sum(rhs),rhsMax =  -5.17502384426325E-03  1.99613347440182E-01
 cg2d: Sum(rhs),rhsMax =  -5.17589644562552E-03  1.99621158685368E-01
 cg2d: Sum(rhs),rhsMax =  -5.17676891603252E-03  1.99628970328197E-01
 cg2d: Sum(rhs),rhsMax =  -5.17764125559652E-03  1.99636782366392E-01
 cg2d: Sum(rhs),rhsMax =  -5.17851346479433E-03  1.99644594797706E-01
 cg2d: Sum(rhs),rhsMax =  -5.17938554301975E-03  1.99652407619873E-01
 cg2d: Sum(rhs),rhsMax =  -5.18025749072487E-03  1.99660220830630E-01
 cg2d: Sum(rhs),rhsMax =  -5.18112930755167E-03  1.99668034427714E-01
 cg2d: Sum(rhs),rhsMax =  -5.18200099397191E-03  1.99675848408861E-01
 cg2d: Sum(rhs),rhsMax =  -5.18287255001844E-03  1.99683662771809E-01
 cg2d: Sum(rhs),rhsMax =  -5.18374397501275E-03  1.99691477514295E-01
 cg2d: Sum(rhs),rhsMax =  -5.18461527023624E-03  1.99699292634052E-01
 cg2d: Sum(rhs),rhsMax =  -5.18548643481363E-03  1.99707108128817E-01
 cg2d: Sum(rhs),rhsMax =  -5.18635746924759E-03  1.99714923996328E-01
 cg2d: Sum(rhs),rhsMax =  -5.18722837295848E-03  1.99722740234307E-01
 cg2d: Sum(rhs),rhsMax =  -5.18809914672801E-03  1.99730556840501E-01
 cg2d: Sum(rhs),rhsMax =  -5.18896979000644E-03  1.99738373812641E-01
 cg2d: Sum(rhs),rhsMax =  -5.18984030299909E-03  1.99746191148450E-01
 cg2d: Sum(rhs),rhsMax =  -5.19071068589546E-03  1.99754008845676E-01
 cg2d: Sum(rhs),rhsMax =  -5.19158093908424E-03  1.99761826902040E-01
 cg2d: Sum(rhs),rhsMax =  -5.19245106206037E-03  1.99769645315276E-01
 cg2d: Sum(rhs),rhsMax =  -5.19341340594381E-03  1.99777464331383E-01
 cg2d: Sum(rhs),rhsMax =  -5.19437546085394E-03  1.99785283455048E-01
 cg2d: Sum(rhs),rhsMax =  -5.19533743666497E-03  1.99793102933692E-01
 cg2d: Sum(rhs),rhsMax =  -5.19629925188059E-03  1.99800922753394E-01
 cg2d: Sum(rhs),rhsMax =  -5.19726091039748E-03  1.99808742914851E-01
 cg2d: Sum(rhs),rhsMax =  -5.19822241320803E-03  1.99816563418646E-01
 cg2d: Sum(rhs),rhsMax =  -5.19918376021788E-03  1.99824384264220E-01
 cg2d: Sum(rhs),rhsMax =  -5.20014495176021E-03  1.99832205449200E-01
 cg2d: Sum(rhs),rhsMax =  -5.20110598676232E-03  1.99840026970832E-01
 cg2d: Sum(rhs),rhsMax =  -5.20206686616687E-03  1.99847848826529E-01
(PID.TID 0000.0001)      cg2d_init_res =   5.14432000376770E-04
(PID.TID 0000.0001)      cg2d_iters(min,last) =      -1      71
(PID.TID 0000.0001)      cg2d_last_res =   9.98723838188491E-08
(PID.TID 0000.0001) // =======================================================
(PID.TID 0000.0001) // Begin MONITOR dynamic field statistics
(PID.TID 0000.0001) // =======================================================
(PID.TID 0000.0001) %MON time_tsnumber                =                 13464
(PID.TID 0000.0001) %MON time_secondsf                =   1.6156800000000E+07
(PID.TID 0000.0001) %MON dynstat_eta_max              =   2.9733026804708E-01
(PID.TID 0000.0001) %MON dynstat_eta_min              =  -9.9916461085530E-02
(PID.TID 0000.0001) %MON dynstat_eta_mean             =   5.1966087314553E-06
(PID.TID 0000.0001) %MON dynstat_eta_sd               =   1.1713500591588E-01
(PID.TID 0000.0001) %MON dynstat_eta_del2             =   3.1004792699868E-05
(PID.TID 0000.0001) %MON dynstat_uvel_max             =   1.5077387761315E-01
(PID.TID 0000.0001) %MON dynstat_uvel_min             =  -1.1204844677120E-01
(PID.TID 0000.0001) %MON dynstat_uvel_mean            =  -2.6572493008569E-08
(PID.TID 0000.0001) %MON dynstat_uvel_sd              =   4.8059336972974E-02
(PID.TID 0000.0001) %MON dynstat_uvel_del2            =   7.0161359088530E-05
(PID.TID 0000.0001) %MON dynstat_vvel_max             =   9.4454243075072E-02
(PID.TID 0000.0001) %MON dynstat_vvel_min             =  -1.2458502237016E-01
(PID.TID 0000.0001) %MON dynstat_vvel_mean            =   1.3842879159565E-07
(PID.TID 0000.0001) %MON dynstat_vvel_sd              =   4.3733767064556E-02
(PID.TID 0000.0001) %MON dynstat_vvel_del2            =   4.0408620501794E-05
(PID.TID 0000.0001) %MON dynstat_wvel_max             =   1.4353298644419E-08
(PID.TID 0000.0001) %MON dynstat_wvel_min             =  -6.0033149382798E-09
(PID.TID 0000.0001) %MON dynstat_wvel_mean            =  -2.1596598445386E-21
(PID.TID 0000.0001) %MON dynstat_wvel_sd              =   5.1485260378402E-09
(PID.TID 0000.0001) %MON dynstat_wvel_del2            =   1.6751210872176E-12
(PID.TID 0000.0001) %MON dynstat_theta_max            =   2.0000000000000E+01
(PID.TID 0000.0001) %MON dynstat_theta_min            =   2.0000000000000E+01
(PID.TID 0000.0001) %MON dynstat_theta_mean           =   2.0000000000000E+01
(PID.TID 0000.0001) %MON dynstat_theta_sd             =   3.8014036363165E-13
(PID.TID 0000.0001) %MON dynstat_theta_del2           =   0.0000000000000E+00
(PID.TID 0000.0001) %MON dynstat_salt_max             =   3.0000000000000E+01
(PID.TID 0000.0001) %MON dynstat_salt_min             =   3.0000000000000E+01
(PID.TID 0000.0001) %MON dynstat_salt_mean            =   2.9999999999999E+01
(PID.TID 0000.0001) %MON dynstat_salt_sd              =   5.5777604757167E-13
(PID.TID 0000.0001) %MON dynstat_salt_del2            =   0.0000000000000E+00
(PID.TID 0000.0001) %MON trAdv_CFL_u_max              =   9.0453653910837E-03
(PID.TID 0000.0001) %MON trAdv_CFL_v_max              =   7.4650491550114E-03
(PID.TID 0000.0001) %MON trAdv_CFL_w_max              =   3.8078953727174E-09
(PID.TID 0000.0001) %MON advcfl_uvel_max              =   9.0464326567889E-03
(PID.TID 0000.0001) %MON advcfl_vvel_max              =   7.4751013422097E-03
(PID.TID 0000.0001) %MON advcfl_wvel_max              =   6.8895833493210E-09
(PID.TID 0000.0001) %MON advcfl_W_hf_max              =   0.0000000000000E+00
(PID.TID 0000.0001) %MON pe_b_mean                    =   1.4066844997025E-05
(PID.TID 0000.0001) %MON ke_max                       =   1.1380462420752E-02
(PID.TID 0000.0001) %MON ke_mean                      =   2.0723496107215E-03
(PID.TID 0000.0001) %MON ke_vol                       =   6.8893493896486E+15
(PID.TID 0000.0001) %MON vort_r_min                   =  -9.9378833593317E-07
(PID.TID 0000.0001) %MON vort_r_max                   =   3.2532936283506E-06
(PID.TID 0000.0001) %MON vort_a_mean                  =   1.0600000000000E-04
(PID.TID 0000.0001) %MON vort_a_sd                    =   3.5644722802672E-06
(PID.TID 0000.0001) %MON vort_p_mean                  =   1.1652272308690E-04
(PID.TID 0000.0001) %MON vort_p_sd                    =   4.1788311742607E-05
(PID.TID 0000.0001) %MON surfExpan_theta_mean         =  -4.3162629026483E-20
(PID.TID 0000.0001) %MON surfExpan_salt_mean          =  -6.4751601611432E-20
(PID.TID 0000.0001) // =======================================================
(PID.TID 0000.0001) // End MONITOR dynamic field statistics
(PID.TID 0000.0001) // =======================================================
 cg2d: Sum(rhs),rhsMax =  -5.20302758943568E-03  1.99855671013960E-01
 cg2d: Sum(rhs),rhsMax =  -5.20398815705608E-03  1.99863493530917E-01
 cg2d: Sum(rhs),rhsMax =  -5.20494856891886E-03  1.99871316375218E-01
 cg2d: Sum(rhs),rhsMax =  -5.20590882528958E-03  1.99879139544639E-01
 cg2d: Sum(rhs),rhsMax =  -5.20686892620534E-03  1.99886963036903E-01
 cg2d: Sum(rhs),rhsMax =  -5.20782887213314E-03  1.99894786849720E-01
 cg2d: Sum(rhs),rhsMax =  -5.20878866224850E-03  1.99902610980787E-01
 cg2d: Sum(rhs),rhsMax =  -5.20974829748327E-03  1.99910435427800E-01
 cg2d: Sum(rhs),rhsMax =  -5.21070777712762E-03  1.99918260188469E-01
 cg2d: Sum(rhs),rhsMax =  -5.21166710209030E-03  1.99926085260524E-01
 cg2d: Sum(rhs),rhsMax =  -5.21262627180472E-03  1.99933910641692E-01
 cg2d: Sum(rhs),rhsMax =  -5.21358528648174E-03  1.99941736329707E-01
 cg2d: Sum(rhs),rhsMax =  -5.21454414686494E-03  1.99949562322292E-01
 cg2d: Sum(rhs),rhsMax =  -5.21550285224136E-03  1.99957388617183E-01
 cg2d: Sum(rhs),rhsMax =  -5.21646140284385E-03  1.99965215212092E-01
 cg2d: Sum(rhs),rhsMax =  -5.21741979912764E-03  1.99973042104742E-01
 cg2d: Sum(rhs),rhsMax =  -5.21837804083226E-03  1.99980869292843E-01
 cg2d: Sum(rhs),rhsMax =  -5.21933612848904E-03  1.99988696774120E-01
 cg2d: Sum(rhs),rhsMax =  -5.22029406173354E-03  1.99996524546283E-01
 cg2d: Sum(rhs),rhsMax =  -5.22125184085006E-03  2.00004352607049E-01
 cg2d: Sum(rhs),rhsMax =  -5.22220946604515E-03  2.00012180954140E-01
 cg2d: Sum(rhs),rhsMax =  -5.22316693703650E-03  2.00020009585276E-01
 cg2d: Sum(rhs),rhsMax =  -5.22412425394711E-03  2.00027838498162E-01
 cg2d: Sum(rhs),rhsMax =  -5.22508141748771E-03  2.00035667690527E-01
 cg2d: Sum(rhs),rhsMax =  -5.22603842766604E-03  2.00043497160084E-01
 cg2d: Sum(rhs),rhsMax =  -5.22699528346781E-03  2.00051326904551E-01
 cg2d: Sum(rhs),rhsMax =  -5.22795198622112E-03  2.00059156921636E-01
 cg2d: Sum(rhs),rhsMax =  -5.22890853549797E-03  2.00066987209061E-01
 cg2d: Sum(rhs),rhsMax =  -5.22986493180007E-03  2.00074817764536E-01
 cg2d: Sum(rhs),rhsMax =  -5.23082117434741E-03  2.00082648585777E-01
 cg2d: Sum(rhs),rhsMax =  -5.23177726368520E-03  2.00090479670490E-01
 cg2d: Sum(rhs),rhsMax =  -5.23273320033913E-03  2.00098311016397E-01
 cg2d: Sum(rhs),rhsMax =  -5.23368898383379E-03  2.00106142621201E-01
 cg2d: Sum(rhs),rhsMax =  -5.23464461482181E-03  2.00113974482621E-01
 cg2d: Sum(rhs),rhsMax =  -5.23560009295278E-03  2.00121806598366E-01
 cg2d: Sum(rhs),rhsMax =  -5.23655541818493E-03  2.00129638966148E-01
 cg2d: Sum(rhs),rhsMax =  -5.23751059121723E-03  2.00137471583674E-01
 cg2d: Sum(rhs),rhsMax =  -5.23846561159314E-03  2.00145304448658E-01
 cg2d: Sum(rhs),rhsMax =  -5.23942048027244E-03  2.00153137558806E-01
 cg2d: Sum(rhs),rhsMax =  -5.24037519625021E-03  2.00160970911830E-01
 cg2d: Sum(rhs),rhsMax =  -5.24132975978018E-03  2.00168804505439E-01
 cg2d: Sum(rhs),rhsMax =  -5.24228417112260E-03  2.00176638337339E-01
 cg2d: Sum(rhs),rhsMax =  -5.24323843042428E-03  2.00184472405235E-01
 cg2d: Sum(rhs),rhsMax =  -5.24419253791432E-03  2.00192306706839E-01
 cg2d: Sum(rhs),rhsMax =  -5.24514649377553E-03  2.00200141239855E-01
 cg2d: Sum(rhs),rhsMax =  -5.24610029785746E-03  2.00207976001989E-01
 cg2d: Sum(rhs),rhsMax =  -5.24705395022738E-03  2.00215810990951E-01
 cg2d: Sum(rhs),rhsMax =  -5.24800745141358E-03  2.00223646204444E-01
 cg2d: Sum(rhs),rhsMax =  -5.24896080056801E-03  2.00231481640169E-01
 cg2d: Sum(rhs),rhsMax =  -5.24991399887135E-03  2.00239317295836E-01
 cg2d: Sum(rhs),rhsMax =  -5.25086704562633E-03  2.00247153169144E-01
 cg2d: Sum(rhs),rhsMax =  -5.25181994129759E-03  2.00254989257804E-01
 cg2d: Sum(rhs),rhsMax =  -5.25277268565114E-03  2.00262825559515E-01
 cg2d: Sum(rhs),rhsMax =  -5.25372527923998E-03  2.00270662071974E-01
 cg2d: Sum(rhs),rhsMax =  -5.25467772171050E-03  2.00278498792888E-01
 cg2d: Sum(rhs),rhsMax =  -5.25563001315257E-03  2.00286335719959E-01
 cg2d: Sum(rhs),rhsMax =  -5.25658215429178E-03  2.00294172850888E-01
 cg2d: Sum(rhs),rhsMax =  -5.25753414426212E-03  2.00302010183376E-01
 cg2d: Sum(rhs),rhsMax =  -5.25848598361157E-03  2.00309847715122E-01
 cg2d: Sum(rhs),rhsMax =  -5.25943767243180E-03  2.00317685443830E-01
 cg2d: Sum(rhs),rhsMax =  -5.26038921089355E-03  2.00325523367192E-01
 cg2d: Sum(rhs),rhsMax =  -5.26134059889661E-03  2.00333361482911E-01
 cg2d: Sum(rhs),rhsMax =  -5.26229183642613E-03  2.00341199788686E-01
 cg2d: Sum(rhs),rhsMax =  -5.26324292388110E-03  2.00349038282212E-01
 cg2d: Sum(rhs),rhsMax =  -5.26419386103821E-03  2.00356876961188E-01
 cg2d: Sum(rhs),rhsMax =  -5.26514464798595E-03  2.00364715823317E-01
 cg2d: Sum(rhs),rhsMax =  -5.26609528508815E-03  2.00372554866282E-01
 cg2d: Sum(rhs),rhsMax =  -5.26704577209939E-03  2.00380394087796E-01
 cg2d: Sum(rhs),rhsMax =  -5.26799610924432E-03  2.00388233485542E-01
 cg2d: Sum(rhs),rhsMax =  -5.26894629619368E-03  2.00396073057212E-01
 cg2d: Sum(rhs),rhsMax =  -5.26989633346982E-03  2.00403912800513E-01
 cg2d: Sum(rhs),rhsMax =  -5.27084622111833E-03  2.00411752713133E-01
(PID.TID 0000.0001)      cg2d_init_res =   5.14379272574949E-04
(PID.TID 0000.0001)      cg2d_iters(min,last) =      -1      71
(PID.TID 0000.0001)      cg2d_last_res =   9.88783116282205E-08
(PID.TID 0000.0001) // =======================================================
(PID.TID 0000.0001) // Begin MONITOR dynamic field statistics
(PID.TID 0000.0001) // =======================================================
(PID.TID 0000.0001) %MON time_tsnumber                =                 13536
(PID.TID 0000.0001) %MON time_secondsf                =   1.6243200000000E+07
(PID.TID 0000.0001) %MON dynstat_eta_max              =   2.9853802042690E-01
(PID.TID 0000.0001) %MON dynstat_eta_min              =  -1.0017387695481E-01
(PID.TID 0000.0001) %MON dynstat_eta_mean             =   5.2801490493166E-06
(PID.TID 0000.0001) %MON dynstat_eta_sd               =   1.1755591696430E-01
(PID.TID 0000.0001) %MON dynstat_eta_del2             =   3.1094710799660E-05
(PID.TID 0000.0001) %MON dynstat_uvel_max             =   1.5119950694382E-01
(PID.TID 0000.0001) %MON dynstat_uvel_min             =  -1.1256945414010E-01
(PID.TID 0000.0001) %MON dynstat_uvel_mean            =  -2.1970926875654E-08
(PID.TID 0000.0001) %MON dynstat_uvel_sd              =   4.8230584906594E-02
(PID.TID 0000.0001) %MON dynstat_uvel_del2            =   7.0299176794127E-05
(PID.TID 0000.0001) %MON dynstat_vvel_max             =   9.4873651828985E-02
(PID.TID 0000.0001) %MON dynstat_vvel_min             =  -1.2495988266962E-01
(PID.TID 0000.0001) %MON dynstat_vvel_mean            =   1.3676019314458E-07
(PID.TID 0000.0001) %MON dynstat_vvel_sd              =   4.3888806664475E-02
(PID.TID 0000.0001) %MON dynstat_vvel_del2            =   4.0373769670482E-05
(PID.TID 0000.0001) %MON dynstat_wvel_max             =   1.4280999878538E-08
(PID.TID 0000.0001) %MON dynstat_wvel_min             =  -6.0894315096084E-09
(PID.TID 0000.0001) %MON dynstat_wvel_mean            =  -6.2560169074762E-21
(PID.TID 0000.0001) %MON dynstat_wvel_sd              =   5.1138380968104E-09
(PID.TID 0000.0001) %MON dynstat_wvel_del2            =   1.6729021148120E-12
(PID.TID 0000.0001) %MON dynstat_theta_max            =   2.0000000000000E+01
(PID.TID 0000.0001) %MON dynstat_theta_min            =   2.0000000000000E+01
(PID.TID 0000.0001) %MON dynstat_theta_mean           =   2.0000000000000E+01
(PID.TID 0000.0001) %MON dynstat_theta_sd             =   3.8014036363165E-13
(PID.TID 0000.0001) %MON dynstat_theta_del2           =   0.0000000000000E+00
(PID.TID 0000.0001) %MON dynstat_salt_max             =   3.0000000000000E+01
(PID.TID 0000.0001) %MON dynstat_salt_min             =   3.0000000000000E+01
(PID.TID 0000.0001) %MON dynstat_salt_mean            =   2.9999999999999E+01
(PID.TID 0000.0001) %MON dynstat_salt_sd              =   5.5777604757167E-13
(PID.TID 0000.0001) %MON dynstat_salt_del2            =   0.0000000000000E+00
(PID.TID 0000.0001) %MON trAdv_CFL_u_max              =   9.0708966801028E-03
(PID.TID 0000.0001) %MON trAdv_CFL_v_max              =   7.4875240682270E-03
(PID.TID 0000.0001) %MON trAdv_CFL_w_max              =   3.7887106167766E-09
(PID.TID 0000.0001) %MON advcfl_uvel_max              =   9.0719704166290E-03
(PID.TID 0000.0001) %MON advcfl_vvel_max              =   7.4975929601771E-03
(PID.TID 0000.0001) %MON advcfl_wvel_max              =   6.8548799416982E-09
(PID.TID 0000.0001) %MON advcfl_W_hf_max              =   0.0000000000000E+00
(PID.TID 0000.0001) %MON pe_b_mean                    =   1.4168121784210E-05
(PID.TID 0000.0001) %MON ke_max                       =   1.1444345139563E-02
(PID.TID 0000.0001) %MON ke_mean                      =   2.0871103067124E-03
(PID.TID 0000.0001) %MON ke_vol                       =   6.8893493896486E+15
(PID.TID 0000.0001) %MON vort_r_min                   =  -9.9221148287565E-07
(PID.TID 0000.0001) %MON vort_r_max                   =   3.2623212051208E-06
(PID.TID 0000.0001) %MON vort_a_mean                  =   1.0600000000000E-04
(PID.TID 0000.0001) %MON vort_a_sd                    =   3.5647193658621E-06
(PID.TID 0000.0001) %MON vort_p_mean                  =   1.1652272308690E-04
(PID.TID 0000.0001) %MON vort_p_sd                    =   4.1788372271508E-05
(PID.TID 0000.0001) %MON surfExpan_theta_mean         =  -1.2510099622887E-19
(PID.TID 0000.0001) %MON surfExpan_salt_mean          =  -1.8764012565953E-19
(PID.TID 0000.0001) // =======================================================
(PID.TID 0000.0001) // End MONITOR dynamic field statistics
(PID.TID 0000.0001) // =======================================================
 cg2d: Sum(rhs),rhsMax =  -5.27179595909241E-03  2.00419592792766E-01
 cg2d: Sum(rhs),rhsMax =  -5.27274554735836E-03  2.00427433037104E-01
 cg2d: Sum(rhs),rhsMax =  -5.27369498603913E-03  2.00435273443840E-01
 cg2d: Sum(rhs),rhsMax =  -5.27464427521642E-03  2.00443114010666E-01
 cg2d: Sum(rhs),rhsMax =  -5.27559341470325E-03  2.00450954735279E-01
 cg2d: Sum(rhs),rhsMax =  -5.27654240491161E-03  2.00458795615361E-01
 cg2d: Sum(rhs),rhsMax =  -5.27749124559987E-03  2.00466636648611E-01
 cg2d: Sum(rhs),rhsMax =  -5.27843993686807E-03  2.00474477832718E-01
 cg2d: Sum(rhs),rhsMax =  -5.27938847887234E-03  2.00482319165369E-01
 cg2d: Sum(rhs),rhsMax =  -5.28033687174081E-03  2.00490160644250E-01
 cg2d: Sum(rhs),rhsMax =  -5.28128511535638E-03  2.00498002267057E-01
 cg2d: Sum(rhs),rhsMax =  -5.28223320968402E-03  2.00505844031475E-01
 cg2d: Sum(rhs),rhsMax =  -5.28318115509779E-03  2.00513685935193E-01
 cg2d: Sum(rhs),rhsMax =  -5.28412895098107E-03  2.00521527975902E-01
 cg2d: Sum(rhs),rhsMax =  -5.28507659830224E-03  2.00529370151277E-01
 cg2d: Sum(rhs),rhsMax =  -5.28602409625515E-03  2.00537212459017E-01
 cg2d: Sum(rhs),rhsMax =  -5.28697144529587E-03  2.00545054896803E-01
 cg2d: Sum(rhs),rhsMax =  -5.28791864520424E-03  2.00552897462319E-01
 cg2d: Sum(rhs),rhsMax =  -5.28886569631358E-03  2.00560740153251E-01
 cg2d: Sum(rhs),rhsMax =  -5.28981259855315E-03  2.00568582967288E-01
 cg2d: Sum(rhs),rhsMax =  -5.29075935145746E-03  2.00576425902109E-01
 cg2d: Sum(rhs),rhsMax =  -5.29170595561293E-03  2.00584268955396E-01
 cg2d: Sum(rhs),rhsMax =  -5.29265241030611E-03  2.00592112124834E-01
 cg2d: Sum(rhs),rhsMax =  -5.29359871669808E-03  2.00599955408112E-01
 cg2d: Sum(rhs),rhsMax =  -5.29454487403407E-03  2.00607798802906E-01
 cg2d: Sum(rhs),rhsMax =  -5.29549088247144E-03  2.00615642306893E-01
 cg2d: Sum(rhs),rhsMax =  -5.29643674196133E-03  2.00623485917765E-01
 cg2d: Sum(rhs),rhsMax =  -5.29738245264552E-03  2.00631329633190E-01
 cg2d: Sum(rhs),rhsMax =  -5.29832801400337E-03  2.00639173450862E-01
 cg2d: Sum(rhs),rhsMax =  -5.29927342668460E-03  2.00647017368445E-01
 cg2d: Sum(rhs),rhsMax =  -5.30021869029126E-03  2.00654861383632E-01
 cg2d: Sum(rhs),rhsMax =  -5.30116380518584E-03  2.00662705494095E-01
 cg2d: Sum(rhs),rhsMax =  -5.30210877131029E-03  2.00670549697514E-01
 cg2d: Sum(rhs),rhsMax =  -5.30305358792550E-03  2.00678393991563E-01
 cg2d: Sum(rhs),rhsMax =  -5.30399825576660E-03  2.00686238373926E-01
 cg2d: Sum(rhs),rhsMax =  -5.30494277466357E-03  2.00694082842272E-01
 cg2d: Sum(rhs),rhsMax =  -5.30588714462373E-03  2.00701927394282E-01
 cg2d: Sum(rhs),rhsMax =  -5.30683136541525E-03  2.00709772027630E-01
 cg2d: Sum(rhs),rhsMax =  -5.30777543704698E-03  2.00717616739991E-01
 cg2d: Sum(rhs),rhsMax =  -5.30871935923432E-03  2.00725461529042E-01
 cg2d: Sum(rhs),rhsMax =  -5.30966313224012E-03  2.00733306392452E-01
 cg2d: Sum(rhs),rhsMax =  -5.31060675636065E-03  2.00741151327895E-01
 cg2d: Sum(rhs),rhsMax =  -5.31155023105297E-03  2.00748996333049E-01
 cg2d: Sum(rhs),rhsMax =  -5.31249355603744E-03  2.00756841405587E-01
 cg2d: Sum(rhs),rhsMax =  -5.31343673200920E-03  2.00764686543176E-01
 cg2d: Sum(rhs),rhsMax =  -5.31437975853975E-03  2.00772531743485E-01
 cg2d: Sum(rhs),rhsMax =  -5.31532263530129E-03  2.00780377004196E-01
 cg2d: Sum(rhs),rhsMax =  -5.31626536255122E-03  2.00788222322975E-01
 cg2d: Sum(rhs),rhsMax =  -5.31720794020083E-03  2.00796067697485E-01
 cg2d: Sum(rhs),rhsMax =  -5.31815036783932E-03  2.00803913125401E-01
 cg2d: Sum(rhs),rhsMax =  -5.31909264621001E-03  2.00811758604395E-01
 cg2d: Sum(rhs),rhsMax =  -5.32003477472252E-03  2.00819604132131E-01
 cg2d: Sum(rhs),rhsMax =  -5.32097675320003E-03  2.00827449706279E-01
 cg2d: Sum(rhs),rhsMax =  -5.32191858166767E-03  2.00835295324504E-01
 cg2d: Sum(rhs),rhsMax =  -5.32286026018077E-03  2.00843140984476E-01
 cg2d: Sum(rhs),rhsMax =  -5.32380178854192E-03  2.00850986683862E-01
 cg2d: Sum(rhs),rhsMax =  -5.32474316669798E-03  2.00858832420320E-01
 cg2d: Sum(rhs),rhsMax =  -5.32568439470489E-03  2.00866678191526E-01
 cg2d: Sum(rhs),rhsMax =  -5.32662547180135E-03  2.00874523995140E-01
 cg2d: Sum(rhs),rhsMax =  -5.32756639823892E-03  2.00882369828823E-01
 cg2d: Sum(rhs),rhsMax =  -5.32850717413605E-03  2.00890215690251E-01
 cg2d: Sum(rhs),rhsMax =  -5.32944779906844E-03  2.00898061577075E-01
 cg2d: Sum(rhs),rhsMax =  -5.33038827330010E-03  2.00905907486954E-01
 cg2d: Sum(rhs),rhsMax =  -5.33132859650785E-03  2.00913753417565E-01
 cg2d: Sum(rhs),rhsMax =  -5.33226876881318E-03  2.00921599366559E-01
 cg2d: Sum(rhs),rhsMax =  -5.33320878971104E-03  2.00929445331604E-01
 cg2d: Sum(rhs),rhsMax =  -5.33414865927253E-03  2.00937291310353E-01
 cg2d: Sum(rhs),rhsMax =  -5.33508837735629E-03  2.00945137300472E-01
 cg2d: Sum(rhs),rhsMax =  -5.33602794350913E-03  2.00952983299622E-01
 cg2d: Sum(rhs),rhsMax =  -5.33696735818335E-03  2.00960829305457E-01
 cg2d: Sum(rhs),rhsMax =  -5.33790662070047E-03  2.00968675315638E-01
 cg2d: Sum(rhs),rhsMax =  -5.33884573138887E-03  2.00976521327823E-01
(PID.TID 0000.0001)      cg2d_init_res =   5.14385949547306E-04
(PID.TID 0000.0001)      cg2d_iters(min,last) =      -1      71
(PID.TID 0000.0001)      cg2d_last_res =   9.77504927066544E-08
(PID.TID 0000.0001) // =======================================================
(PID.TID 0000.0001) // Begin MONITOR dynamic field statistics
(PID.TID 0000.0001) // =======================================================
(PID.TID 0000.0001) %MON time_tsnumber                =                 13608
(PID.TID 0000.0001) %MON time_secondsf                =   1.6329600000000E+07
(PID.TID 0000.0001) %MON dynstat_eta_max              =   2.9974018078437E-01
(PID.TID 0000.0001) %MON dynstat_eta_min              =  -1.0042581757635E-01
(PID.TID 0000.0001) %MON dynstat_eta_mean             =   5.3633166527692E-06
(PID.TID 0000.0001) %MON dynstat_eta_sd               =   1.1797356607270E-01
(PID.TID 0000.0001) %MON dynstat_eta_del2             =   3.1185354604521E-05
(PID.TID 0000.0001) %MON dynstat_uvel_max             =   1.5163028898769E-01
(PID.TID 0000.0001) %MON dynstat_uvel_min             =  -1.1308450660312E-01
(PID.TID 0000.0001) %MON dynstat_uvel_mean            =  -1.8127747421154E-08
(PID.TID 0000.0001) %MON dynstat_uvel_sd              =   4.8399494843837E-02
(PID.TID 0000.0001) %MON dynstat_uvel_del2            =   7.0440466929866E-05
(PID.TID 0000.0001) %MON dynstat_vvel_max             =   9.5287673146045E-02
(PID.TID 0000.0001) %MON dynstat_vvel_min             =  -1.2531982441879E-01
(PID.TID 0000.0001) %MON dynstat_vvel_mean            =   1.3472268830936E-07
(PID.TID 0000.0001) %MON dynstat_vvel_sd              =   4.4044970518517E-02
(PID.TID 0000.0001) %MON dynstat_vvel_del2            =   4.0332484151972E-05
(PID.TID 0000.0001) %MON dynstat_wvel_max             =   1.4209979082516E-08
(PID.TID 0000.0001) %MON dynstat_wvel_min             =  -6.1153282766463E-09
(PID.TID 0000.0001) %MON dynstat_wvel_mean            =   2.7660073303398E-21
(PID.TID 0000.0001) %MON dynstat_wvel_sd              =   5.0790978723883E-09
(PID.TID 0000.0001) %MON dynstat_wvel_del2            =   1.6725128582601E-12
(PID.TID 0000.0001) %MON dynstat_theta_max            =   2.0000000000000E+01
(PID.TID 0000.0001) %MON dynstat_theta_min            =   2.0000000000000E+01
(PID.TID 0000.0001) %MON dynstat_theta_mean           =   2.0000000000000E+01
(PID.TID 0000.0001) %MON dynstat_theta_sd             =   3.8014036363165E-13
(PID.TID 0000.0001) %MON dynstat_theta_del2           =   0.0000000000000E+00
(PID.TID 0000.0001) %MON dynstat_salt_max             =   3.0000000000000E+01
(PID.TID 0000.0001) %MON dynstat_salt_min             =   3.0000000000000E+01
(PID.TID 0000.0001) %MON dynstat_salt_mean            =   2.9999999999999E+01
(PID.TID 0000.0001) %MON dynstat_salt_sd              =   5.5777604757167E-13
(PID.TID 0000.0001) %MON dynstat_salt_del2            =   0.0000000000000E+00
(PID.TID 0000.0001) %MON trAdv_CFL_u_max              =   9.0967374266661E-03
(PID.TID 0000.0001) %MON trAdv_CFL_v_max              =   7.5091046720827E-03
(PID.TID 0000.0001) %MON trAdv_CFL_w_max              =   3.7698662253377E-09
(PID.TID 0000.0001) %MON advcfl_uvel_max              =   9.0978173392615E-03
(PID.TID 0000.0001) %MON advcfl_vvel_max              =   7.5191894651276E-03
(PID.TID 0000.0001) %MON advcfl_wvel_max              =   6.8207899596076E-09
(PID.TID 0000.0001) %MON advcfl_W_hf_max              =   0.0000000000000E+00
(PID.TID 0000.0001) %MON pe_b_mean                    =   1.4268972767022E-05
(PID.TID 0000.0001) %MON ke_max                       =   1.1509156902443E-02
(PID.TID 0000.0001) %MON ke_mean                      =   2.1018609114078E-03
(PID.TID 0000.0001) %MON ke_vol                       =   6.8893493896486E+15
(PID.TID 0000.0001) %MON vort_r_min                   =  -9.9097040537238E-07
(PID.TID 0000.0001) %MON vort_r_max                   =   3.2716160620930E-06
(PID.TID 0000.0001) %MON vort_a_mean                  =   1.0600000000000E-04
(PID.TID 0000.0001) %MON vort_a_sd                    =   3.5649673928552E-06
(PID.TID 0000.0001) %MON vort_p_mean                  =   1.1652272308690E-04
(PID.TID 0000.0001) %MON vort_p_sd                    =   4.1788433946169E-05
(PID.TID 0000.0001) %MON surfExpan_theta_mean         =   5.5321278422424E-20
(PID.TID 0000.0001) %MON surfExpan_salt_mean          =   8.2978128072379E-20
(PID.TID 0000.0001) // =======================================================
(PID.TID 0000.0001) // End MONITOR dynamic field statistics
(PID.TID 0000.0001) // =======================================================
 cg2d: Sum(rhs),rhsMax =  -5.33978468946210E-03  2.00984367339670E-01
 cg2d: Sum(rhs),rhsMax =  -5.34072349542525E-03  2.00992213348835E-01
 cg2d: Sum(rhs),rhsMax =  -5.34166214882898E-03  2.01000059352972E-01
 cg2d: Sum(rhs),rhsMax =  -5.34260064932283E-03  2.01007905349741E-01
 cg2d: Sum(rhs),rhsMax =  -5.34353899714329E-03  2.01015751336798E-01
 cg2d: Sum(rhs),rhsMax =  -5.34447719170531E-03  2.01023597311796E-01
 cg2d: Sum(rhs),rhsMax =  -5.34541523341217E-03  2.01031443272386E-01
 cg2d: Sum(rhs),rhsMax =  -5.34635312110605E-03  2.01039289216223E-01
 cg2d: Sum(rhs),rhsMax =  -5.34729085548499E-03  2.01047135140966E-01
 cg2d: Sum(rhs),rhsMax =  -5.34822843610125E-03  2.01054981044261E-01
 cg2d: Sum(rhs),rhsMax =  -5.34916586267334E-03  2.01062826923763E-01
 cg2d: Sum(rhs),rhsMax =  -5.35010313494702E-03  2.01070672777123E-01
 cg2d: Sum(rhs),rhsMax =  -5.35104025287168E-03  2.01078518601992E-01
 cg2d: Sum(rhs),rhsMax =  -5.35197721629436E-03  2.01086364396024E-01
 cg2d: Sum(rhs),rhsMax =  -5.35291402496964E-03  2.01094210156862E-01
 cg2d: Sum(rhs),rhsMax =  -5.35385067878647E-03  2.01102055882157E-01
 cg2d: Sum(rhs),rhsMax =  -5.35478717704347E-03  2.01109901569562E-01
 cg2d: Sum(rhs),rhsMax =  -5.35572352007880E-03  2.01117747216721E-01
 cg2d: Sum(rhs),rhsMax =  -5.35665970745184E-03  2.01125592821291E-01
 cg2d: Sum(rhs),rhsMax =  -5.35759573855325E-03  2.01133438380903E-01
 cg2d: Sum(rhs),rhsMax =  -5.35853161375194E-03  2.01141283893218E-01
 cg2d: Sum(rhs),rhsMax =  -5.35946733234453E-03  2.01149129355877E-01
 cg2d: Sum(rhs),rhsMax =  -5.36040289427711E-03  2.01156974766524E-01
 cg2d: Sum(rhs),rhsMax =  -5.36133829951857E-03  2.01164820122802E-01
 cg2d: Sum(rhs),rhsMax =  -5.36227354802750E-03  2.01172665422361E-01
 cg2d: Sum(rhs),rhsMax =  -5.36320863865425E-03  2.01180510662845E-01
 cg2d: Sum(rhs),rhsMax =  -5.36414357165559E-03  2.01188355841890E-01
 cg2d: Sum(rhs),rhsMax =  -5.36507834685860E-03  2.01196200957146E-01
 cg2d: Sum(rhs),rhsMax =  -5.36601296385292E-03  2.01204046006250E-01
 cg2d: Sum(rhs),rhsMax =  -5.36694742231147E-03  2.01211890986848E-01
 cg2d: Sum(rhs),rhsMax =  -5.36788172176475E-03  2.01219735896579E-01
 cg2d: Sum(rhs),rhsMax =  -5.36881586237396E-03  2.01227580733085E-01
 cg2d: Sum(rhs),rhsMax =  -5.36974984363477E-03  2.01235425494003E-01
 cg2d: Sum(rhs),rhsMax =  -5.37068366528051E-03  2.01243270176977E-01
 cg2d: Sum(rhs),rhsMax =  -5.37161732703610E-03  2.01251114779639E-01
 cg2d: Sum(rhs),rhsMax =  -5.37255082799965E-03  2.01258959299631E-01
 cg2d: Sum(rhs),rhsMax =  -5.37348416860177E-03  2.01266803734594E-01
 cg2d: Sum(rhs),rhsMax =  -5.37441734830842E-03  2.01274648082157E-01
 cg2d: Sum(rhs),rhsMax =  -5.37535036688797E-03  2.01282492339966E-01
 cg2d: Sum(rhs),rhsMax =  -5.37628322358574E-03  2.01290336505649E-01
 cg2d: Sum(rhs),rhsMax =  -5.37721591868890E-03  2.01298180576846E-01
 cg2d: Sum(rhs),rhsMax =  -5.37814845179591E-03  2.01306024551189E-01
 cg2d: Sum(rhs),rhsMax =  -5.37908082209885E-03  2.01313868426313E-01
 cg2d: Sum(rhs),rhsMax =  -5.38001302968765E-03  2.01321712199854E-01
 cg2d: Sum(rhs),rhsMax =  -5.38094507388183E-03  2.01329555869441E-01
 cg2d: Sum(rhs),rhsMax =  -5.38187695452730E-03  2.01337399432707E-01
 cg2d: Sum(rhs),rhsMax =  -5.38280867058950E-03  2.01345242887292E-01
 cg2d: Sum(rhs),rhsMax =  -5.38374022310371E-03  2.01353086230817E-01
 cg2d: Sum(rhs),rhsMax =  -5.38467161058667E-03  2.01360929460912E-01
 cg2d: Sum(rhs),rhsMax =  -5.38560283271030E-03  2.01368772575217E-01
 cg2d: Sum(rhs),rhsMax =  -5.38653388995413E-03  2.01376615571357E-01
 cg2d: Sum(rhs),rhsMax =  -5.38746478064951E-03  2.01384458446961E-01
 cg2d: Sum(rhs),rhsMax =  -5.38839550529474E-03  2.01392301199653E-01
 cg2d: Sum(rhs),rhsMax =  -5.38932606321465E-03  2.01400143827067E-01
 cg2d: Sum(rhs),rhsMax =  -5.39025645420851E-03  2.01407986326824E-01
 cg2d: Sum(rhs),rhsMax =  -5.39118667733939E-03  2.01415828696557E-01
 cg2d: Sum(rhs),rhsMax =  -5.39211673292545E-03  2.01423670933891E-01
 cg2d: Sum(rhs),rhsMax =  -5.39304662026258E-03  2.01431513036449E-01
 cg2d: Sum(rhs),rhsMax =  -5.39397633878691E-03  2.01439355001856E-01
 cg2d: Sum(rhs),rhsMax =  -5.39490588809211E-03  2.01447196827739E-01
 cg2d: Sum(rhs),rhsMax =  -5.39583526756137E-03  2.01455038511718E-01
 cg2d: Sum(rhs),rhsMax =  -5.39676447697576E-03  2.01462880051417E-01
 cg2d: Sum(rhs),rhsMax =  -5.39769351607739E-03  2.01470721444460E-01
 cg2d: Sum(rhs),rhsMax =  -5.39862238417665E-03  2.01478562688467E-01
 cg2d: Sum(rhs),rhsMax =  -5.39955108100713E-03  2.01486403781060E-01
 cg2d: Sum(rhs),rhsMax =  -5.40047960557662E-03  2.01494244719863E-01
 cg2d: Sum(rhs),rhsMax =  -5.40140795775970E-03  2.01502085502493E-01
 cg2d: Sum(rhs),rhsMax =  -5.40233613733641E-03  2.01509926126568E-01
 cg2d: Sum(rhs),rhsMax =  -5.40326414359117E-03  2.01517766589707E-01
 cg2d: Sum(rhs),rhsMax =  -5.40419197618931E-03  2.01525606889533E-01
 cg2d: Sum(rhs),rhsMax =  -5.40511963358756E-03  2.01533447023659E-01
 cg2d: Sum(rhs),rhsMax =  -5.40604711710555E-03  2.01541286989705E-01
(PID.TID 0000.0001)      cg2d_init_res =   5.14361027874508E-04
(PID.TID 0000.0001)      cg2d_iters(min,last) =      -1      71
(PID.TID 0000.0001)      cg2d_last_res =   9.65535313726357E-08
(PID.TID 0000.0001) // =======================================================
(PID.TID 0000.0001) // Begin MONITOR dynamic field statistics
(PID.TID 0000.0001) // =======================================================
(PID.TID 0000.0001) %MON time_tsnumber                =                 13680
(PID.TID 0000.0001) %MON time_secondsf                =   1.6416000000000E+07
(PID.TID 0000.0001) %MON dynstat_eta_max              =   3.0093704174089E-01
(PID.TID 0000.0001) %MON dynstat_eta_min              =  -1.0067233990736E-01
(PID.TID 0000.0001) %MON dynstat_eta_mean             =   5.4460628635271E-06
(PID.TID 0000.0001) %MON dynstat_eta_sd               =   1.1838810573132E-01
(PID.TID 0000.0001) %MON dynstat_eta_del2             =   3.1276653047107E-05
(PID.TID 0000.0001) %MON dynstat_uvel_max             =   1.5206582149233E-01
(PID.TID 0000.0001) %MON dynstat_uvel_min             =  -1.1359204467127E-01
(PID.TID 0000.0001) %MON dynstat_uvel_mean            =  -1.5118516245600E-08
(PID.TID 0000.0001) %MON dynstat_uvel_sd              =   4.8565956852625E-02
(PID.TID 0000.0001) %MON dynstat_uvel_del2            =   7.0585038219471E-05
(PID.TID 0000.0001) %MON dynstat_vvel_max             =   9.5697865486836E-02
(PID.TID 0000.0001) %MON dynstat_vvel_min             =  -1.2566540442359E-01
(PID.TID 0000.0001) %MON dynstat_vvel_mean            =   1.3249025619404E-07
(PID.TID 0000.0001) %MON dynstat_vvel_sd              =   4.4202358457844E-02
(PID.TID 0000.0001) %MON dynstat_vvel_del2            =   4.0284240069698E-05
(PID.TID 0000.0001) %MON dynstat_wvel_max             =   1.4139912199753E-08
(PID.TID 0000.0001) %MON dynstat_wvel_min             =  -6.1051428952487E-09
(PID.TID 0000.0001) %MON dynstat_wvel_mean            =  -1.1602358224789E-20
(PID.TID 0000.0001) %MON dynstat_wvel_sd              =   5.0446692642123E-09
(PID.TID 0000.0001) %MON dynstat_wvel_del2            =   1.6737052662714E-12
(PID.TID 0000.0001) %MON dynstat_theta_max            =   2.0000000000000E+01
(PID.TID 0000.0001) %MON dynstat_theta_min            =   2.0000000000000E+01
(PID.TID 0000.0001) %MON dynstat_theta_mean           =   2.0000000000000E+01
(PID.TID 0000.0001) %MON dynstat_theta_sd             =   3.8014036363165E-13
(PID.TID 0000.0001) %MON dynstat_theta_del2           =   0.0000000000000E+00
(PID.TID 0000.0001) %MON dynstat_salt_max             =   3.0000000000000E+01
(PID.TID 0000.0001) %MON dynstat_salt_min             =   3.0000000000000E+01
(PID.TID 0000.0001) %MON dynstat_salt_mean            =   2.9999999999999E+01
(PID.TID 0000.0001) %MON dynstat_salt_sd              =   5.5777604757167E-13
(PID.TID 0000.0001) %MON dynstat_salt_del2            =   0.0000000000000E+00
(PID.TID 0000.0001) %MON trAdv_CFL_u_max              =   9.1228635288714E-03
(PID.TID 0000.0001) %MON trAdv_CFL_v_max              =   7.5298241296942E-03
(PID.TID 0000.0001) %MON trAdv_CFL_w_max              =   3.7553855103392E-09
(PID.TID 0000.0001) %MON advcfl_uvel_max              =   9.1239492895397E-03
(PID.TID 0000.0001) %MON advcfl_vvel_max              =   7.5399242654156E-03
(PID.TID 0000.0001) %MON advcfl_wvel_max              =   6.7871578558814E-09
(PID.TID 0000.0001) %MON advcfl_W_hf_max              =   0.0000000000000E+00
(PID.TID 0000.0001) %MON pe_b_mean                    =   1.4369426582278E-05
(PID.TID 0000.0001) %MON ke_max                       =   1.1574846861342E-02
(PID.TID 0000.0001) %MON ke_mean                      =   2.1165998697157E-03
(PID.TID 0000.0001) %MON ke_vol                       =   6.8893493896486E+15
(PID.TID 0000.0001) %MON vort_r_min                   =  -9.9006884065615E-07
(PID.TID 0000.0001) %MON vort_r_max                   =   3.2809920001221E-06
(PID.TID 0000.0001) %MON vort_a_mean                  =   1.0600000000000E-04
(PID.TID 0000.0001) %MON vort_a_sd                    =   3.5652159577222E-06
(PID.TID 0000.0001) %MON vort_p_mean                  =   1.1652272308690E-04
(PID.TID 0000.0001) %MON vort_p_sd                    =   4.1788496721788E-05
(PID.TID 0000.0001) %MON surfExpan_theta_mean         =  -2.3203862535108E-19
(PID.TID 0000.0001) %MON surfExpan_salt_mean          =  -3.4805667483953E-19
(PID.TID 0000.0001) // =======================================================
(PID.TID 0000.0001) // End MONITOR dynamic field statistics
(PID.TID 0000.0001) // =======================================================
 cg2d: Sum(rhs),rhsMax =  -5.40697442499706E-03  2.01549126785285E-01
 cg2d: Sum(rhs),rhsMax =  -5.40790155691582E-03  2.01556966408019E-01
 cg2d: Sum(rhs),rhsMax =  -5.40882851256441E-03  2.01564805855518E-01
 cg2d: Sum(rhs),rhsMax =  -5.40975529146566E-03  2.01572645125394E-01
 cg2d: Sum(rhs),rhsMax =  -5.41068189298756E-03  2.01580484215268E-01
 cg2d: Sum(rhs),rhsMax =  -5.41160831633299E-03  2.01588323122751E-01
 cg2d: Sum(rhs),rhsMax =  -5.41253456126367E-03  2.01596161845452E-01
 cg2d: Sum(rhs),rhsMax =  -5.41346062751301E-03  2.01604000380991E-01
 cg2d: Sum(rhs),rhsMax =  -5.41438651376733E-03  2.01611838726973E-01
 cg2d: Sum(rhs),rhsMax =  -5.41531221979658E-03  2.01619676881008E-01
 cg2d: Sum(rhs),rhsMax =  -5.41623774536314E-03  2.01627514840713E-01
 cg2d: Sum(rhs),rhsMax =  -5.41716308963560E-03  2.01635352603691E-01
 cg2d: Sum(rhs),rhsMax =  -5.41808825190782E-03  2.01643190167558E-01
 cg2d: Sum(rhs),rhsMax =  -5.41901323153379E-03  2.01651027529915E-01
 cg2d: Sum(rhs),rhsMax =  -5.41993802825290E-03  2.01658864688374E-01
 cg2d: Sum(rhs),rhsMax =  -5.42086264178443E-03  2.01666701640545E-01
 cg2d: Sum(rhs),rhsMax =  -5.42178707040124E-03  2.01674538384029E-01
 cg2d: Sum(rhs),rhsMax =  -5.42271131448634E-03  2.01682374916428E-01
 cg2d: Sum(rhs),rhsMax =  -5.42363537309469E-03  2.01690211235360E-01
 cg2d: Sum(rhs),rhsMax =  -5.42455924544690E-03  2.01698047338425E-01
 cg2d: Sum(rhs),rhsMax =  -5.42548293122882E-03  2.01705883223220E-01
 cg2d: Sum(rhs),rhsMax =  -5.42640642961612E-03  2.01713718887357E-01
 cg2d: Sum(rhs),rhsMax =  -5.42732974040555E-03  2.01721554328436E-01
 cg2d: Sum(rhs),rhsMax =  -5.42825286199015E-03  2.01729389544059E-01
 cg2d: Sum(rhs),rhsMax =  -5.42917579469036E-03  2.01737224531825E-01
 cg2d: Sum(rhs),rhsMax =  -5.43009853740428E-03  2.01745059289343E-01
 cg2d: Sum(rhs),rhsMax =  -5.43102108950858E-03  2.01752893814206E-01
 cg2d: Sum(rhs),rhsMax =  -5.43194344997677E-03  2.01760728104016E-01
 cg2d: Sum(rhs),rhsMax =  -5.43286561856290E-03  2.01768562156367E-01
 cg2d: Sum(rhs),rhsMax =  -5.43378759439326E-03  2.01776395968866E-01
 cg2d: Sum(rhs),rhsMax =  -5.43470937744657E-03  2.01784229539109E-01
 cg2d: Sum(rhs),rhsMax =  -5.43563096590577E-03  2.01792062864689E-01
 cg2d: Sum(rhs),rhsMax =  -5.43655235996572E-03  2.01799895943198E-01
 cg2d: Sum(rhs),rhsMax =  -5.43747355811464E-03  2.01807728772247E-01
 cg2d: Sum(rhs),rhsMax =  -5.43839456053921E-03  2.01815561349419E-01
 cg2d: Sum(rhs),rhsMax =  -5.43931536564296E-03  2.01823393672312E-01
 cg2d: Sum(rhs),rhsMax =  -5.44023597312617E-03  2.01831225738521E-01
 cg2d: Sum(rhs),rhsMax =  -5.44115638231637E-03  2.01839057545639E-01
 cg2d: Sum(rhs),rhsMax =  -5.44207659233543E-03  2.01846889091256E-01
 cg2d: Sum(rhs),rhsMax =  -5.44299660241954E-03  2.01854720372967E-01
 cg2d: Sum(rhs),rhsMax =  -5.44391641165179E-03  2.01862551388360E-01
 cg2d: Sum(rhs),rhsMax =  -5.44483601990611E-03  2.01870382135033E-01
 cg2d: Sum(rhs),rhsMax =  -5.44575542582917E-03  2.01878212610569E-01
 cg2d: Sum(rhs),rhsMax =  -5.44667462841535E-03  2.01886042812556E-01
 cg2d: Sum(rhs),rhsMax =  -5.44759362745932E-03  2.01893872738590E-01
 cg2d: Sum(rhs),rhsMax =  -5.44851242214160E-03  2.01901702386251E-01
 cg2d: Sum(rhs),rhsMax =  -5.44943101106873E-03  2.01909531753134E-01
 cg2d: Sum(rhs),rhsMax =  -5.45034939382003E-03  2.01917360836822E-01
 cg2d: Sum(rhs),rhsMax =  -5.45126756946074E-03  2.01925189634905E-01
 cg2d: Sum(rhs),rhsMax =  -5.45218553757515E-03  2.01933018144957E-01
 cg2d: Sum(rhs),rhsMax =  -5.45310329693111E-03  2.01940846364577E-01
 cg2d: Sum(rhs),rhsMax =  -5.45402084627266E-03  2.01948674291341E-01
 cg2d: Sum(rhs),rhsMax =  -5.45493818576761E-03  2.01956501922838E-01
 cg2d: Sum(rhs),rhsMax =  -5.45585531362748E-03  2.01964329256642E-01
 cg2d: Sum(rhs),rhsMax =  -5.45677222967698E-03  2.01972156290342E-01
 cg2d: Sum(rhs),rhsMax =  -5.45768893275366E-03  2.01979983021519E-01
 cg2d: Sum(rhs),rhsMax =  -5.45860542192832E-03  2.01987809447755E-01
 cg2d: Sum(rhs),rhsMax =  -5.45952169625443E-03  2.01995635566620E-01
 cg2d: Sum(rhs),rhsMax =  -5.46043775530790E-03  2.02003461375708E-01
 cg2d: Sum(rhs),rhsMax =  -5.46135359772652E-03  2.02011286872590E-01
 cg2d: Sum(rhs),rhsMax =  -5.46226922259973E-03  2.02019112054844E-01
 cg2d: Sum(rhs),rhsMax =  -5.46318462915472E-03  2.02026936920048E-01
 cg2d: Sum(rhs),rhsMax =  -5.46409981636769E-03  2.02034761465783E-01
 cg2d: Sum(rhs),rhsMax =  -5.46501478367237E-03  2.02042585689621E-01
 cg2d: Sum(rhs),rhsMax =  -5.46592952974783E-03  2.02050409589136E-01
 cg2d: Sum(rhs),rhsMax =  -5.46684405335358E-03  2.02058233161908E-01
 cg2d: Sum(rhs),rhsMax =  -5.46775835436033E-03  2.02066056405510E-01
 cg2d: Sum(rhs),rhsMax =  -5.46867243104057E-03  2.02073879317511E-01
 cg2d: Sum(rhs),rhsMax =  -5.46958628284194E-03  2.02081701895483E-01
 cg2d: Sum(rhs),rhsMax =  -5.47049990853209E-03  2.02089524137004E-01
 cg2d: Sum(rhs),rhsMax =  -5.47141330717342E-03  2.02097346039647E-01
 cg2d: Sum(rhs),rhsMax =  -5.47232647799704E-03  2.02105167600973E-01
(PID.TID 0000.0001)      cg2d_init_res =   5.14189083814269E-04
(PID.TID 0000.0001)      cg2d_iters(min,last) =      -1      71
(PID.TID 0000.0001)      cg2d_last_res =   9.53588759189469E-08
(PID.TID 0000.0001) // =======================================================
(PID.TID 0000.0001) // Begin MONITOR dynamic field statistics
(PID.TID 0000.0001) // =======================================================
(PID.TID 0000.0001) %MON time_tsnumber                =                 13752
(PID.TID 0000.0001) %MON time_secondsf                =   1.6502400000000E+07
(PID.TID 0000.0001) %MON dynstat_eta_max              =   3.0212894599973E-01
(PID.TID 0000.0001) %MON dynstat_eta_min              =  -1.0091345130790E-01
(PID.TID 0000.0001) %MON dynstat_eta_mean             =   5.5282297583093E-06
(PID.TID 0000.0001) %MON dynstat_eta_sd               =   1.1879972637302E-01
(PID.TID 0000.0001) %MON dynstat_eta_del2             =   3.1368516852110E-05
(PID.TID 0000.0001) %MON dynstat_uvel_max             =   1.5250566533296E-01
(PID.TID 0000.0001) %MON dynstat_uvel_min             =  -1.1409093778314E-01
(PID.TID 0000.0001) %MON dynstat_uvel_mean            =  -1.2958251791837E-08
(PID.TID 0000.0001) %MON dynstat_uvel_sd              =   4.8729965108787E-02
(PID.TID 0000.0001) %MON dynstat_uvel_del2            =   7.0732641653462E-05
(PID.TID 0000.0001) %MON dynstat_vvel_max             =   9.6105938991759E-02
(PID.TID 0000.0001) %MON dynstat_vvel_min             =  -1.2599742670210E-01
(PID.TID 0000.0001) %MON dynstat_vvel_mean            =   1.3023638039361E-07
(PID.TID 0000.0001) %MON dynstat_vvel_sd              =   4.4360960394743E-02
(PID.TID 0000.0001) %MON dynstat_vvel_del2            =   4.0228641335897E-05
(PID.TID 0000.0001) %MON dynstat_wvel_max             =   1.4079237910337E-08
(PID.TID 0000.0001) %MON dynstat_wvel_min             =  -6.0699922643835E-09
(PID.TID 0000.0001) %MON dynstat_wvel_mean            =  -1.2056921655636E-20
(PID.TID 0000.0001) %MON dynstat_wvel_sd              =   5.0110344136150E-09
(PID.TID 0000.0001) %MON dynstat_wvel_del2            =   1.6760714916003E-12
(PID.TID 0000.0001) %MON dynstat_theta_max            =   2.0000000000000E+01
(PID.TID 0000.0001) %MON dynstat_theta_min            =   2.0000000000000E+01
(PID.TID 0000.0001) %MON dynstat_theta_mean           =   2.0000000000000E+01
(PID.TID 0000.0001) %MON dynstat_theta_sd             =   3.8014036363165E-13
(PID.TID 0000.0001) %MON dynstat_theta_del2           =   0.0000000000000E+00
(PID.TID 0000.0001) %MON dynstat_salt_max             =   3.0000000000000E+01
(PID.TID 0000.0001) %MON dynstat_salt_min             =   3.0000000000000E+01
(PID.TID 0000.0001) %MON dynstat_salt_mean            =   2.9999999999999E+01
(PID.TID 0000.0001) %MON dynstat_salt_sd              =   5.5777604757167E-13
(PID.TID 0000.0001) %MON dynstat_salt_del2            =   0.0000000000000E+00
(PID.TID 0000.0001) %MON trAdv_CFL_u_max              =   9.1492486715243E-03
(PID.TID 0000.0001) %MON trAdv_CFL_v_max              =   7.5497304105285E-03
(PID.TID 0000.0001) %MON trAdv_CFL_w_max              =   3.7408848024810E-09
(PID.TID 0000.0001) %MON advcfl_uvel_max              =   9.1503399199777E-03
(PID.TID 0000.0001) %MON advcfl_vvel_max              =   7.5598456021260E-03
(PID.TID 0000.0001) %MON advcfl_wvel_max              =   6.7580341969617E-09
(PID.TID 0000.0001) %MON advcfl_W_hf_max              =   0.0000000000000E+00
(PID.TID 0000.0001) %MON pe_b_mean                    =   1.4469521689365E-05
(PID.TID 0000.0001) %MON ke_max                       =   1.1641357618792E-02
(PID.TID 0000.0001) %MON ke_mean                      =   2.1313258311305E-03
(PID.TID 0000.0001) %MON ke_vol                       =   6.8893493896486E+15
(PID.TID 0000.0001) %MON vort_r_min                   =  -9.8950195832437E-07
(PID.TID 0000.0001) %MON vort_r_max                   =   3.2904356370598E-06
(PID.TID 0000.0001) %MON vort_a_mean                  =   1.0600000000000E-04
(PID.TID 0000.0001) %MON vort_a_sd                    =   3.5654646549276E-06
(PID.TID 0000.0001) %MON vort_p_mean                  =   1.1652272308690E-04
(PID.TID 0000.0001) %MON vort_p_sd                    =   4.1788560633276E-05
(PID.TID 0000.0001) %MON surfExpan_theta_mean         =  -2.4109504516269E-19
(PID.TID 0000.0001) %MON surfExpan_salt_mean          =  -3.6164762049238E-19
(PID.TID 0000.0001) // =======================================================
(PID.TID 0000.0001) // End MONITOR dynamic field statistics
(PID.TID 0000.0001) // =======================================================
 cg2d: Sum(rhs),rhsMax =  -5.47323941984805E-03  2.02112988818560E-01
 cg2d: Sum(rhs),rhsMax =  -5.47415213184112E-03  2.02120809689976E-01
 cg2d: Sum(rhs),rhsMax =  -5.47506461318639E-03  2.02128630212790E-01
 cg2d: Sum(rhs),rhsMax =  -5.47597686170644E-03  2.02136450384566E-01
 cg2d: Sum(rhs),rhsMax =  -5.47688887785726E-03  2.02144270202878E-01
 cg2d: Sum(rhs),rhsMax =  -5.47780065945483E-03  2.02152089665284E-01
 cg2d: Sum(rhs),rhsMax =  -5.47871220646463E-03  2.02159908769360E-01
 cg2d: Sum(rhs),rhsMax =  -5.47962351733022E-03  2.02167727512666E-01
 cg2d: Sum(rhs),rhsMax =  -5.48053459010681E-03  2.02175545892763E-01
 cg2d: Sum(rhs),rhsMax =  -5.48144542503424E-03  2.02183363907221E-01
 cg2d: Sum(rhs),rhsMax =  -5.48235602033489E-03  2.02191181553599E-01
 cg2d: Sum(rhs),rhsMax =  -5.48326637559793E-03  2.02198998829463E-01
 cg2d: Sum(rhs),rhsMax =  -5.48417648876345E-03  2.02206815732374E-01
 cg2d: Sum(rhs),rhsMax =  -5.48508635940802E-03  2.02214632259894E-01
 cg2d: Sum(rhs),rhsMax =  -5.48599598583214E-03  2.02222448409577E-01
 cg2d: Sum(rhs),rhsMax =  -5.48690536747276E-03  2.02230264178991E-01
 cg2d: Sum(rhs),rhsMax =  -5.48781450290375E-03  2.02238079565691E-01
 cg2d: Sum(rhs),rhsMax =  -5.48872339104258E-03  2.02245894567236E-01
 cg2d: Sum(rhs),rhsMax =  -5.48963203037182E-03  2.02253709181183E-01
 cg2d: Sum(rhs),rhsMax =  -5.49054042051192E-03  2.02261523405092E-01
 cg2d: Sum(rhs),rhsMax =  -5.49144855978902E-03  2.02269337236521E-01
 cg2d: Sum(rhs),rhsMax =  -5.49235644691985E-03  2.02277150673013E-01
 cg2d: Sum(rhs),rhsMax =  -5.49326408081843E-03  2.02284963712136E-01
 cg2d: Sum(rhs),rhsMax =  -5.49417146038185E-03  2.02292776351442E-01
 cg2d: Sum(rhs),rhsMax =  -5.49507858447747E-03  2.02300588588478E-01
 cg2d: Sum(rhs),rhsMax =  -5.49598545166645E-03  2.02308400420804E-01
 cg2d: Sum(rhs),rhsMax =  -5.49689206107773E-03  2.02316211845963E-01
 cg2d: Sum(rhs),rhsMax =  -5.49779841084007E-03  2.02324022861523E-01
 cg2d: Sum(rhs),rhsMax =  -5.49870450017578E-03  2.02331833465021E-01
 cg2d: Sum(rhs),rhsMax =  -5.49961032749844E-03  2.02339643654007E-01
 cg2d: Sum(rhs),rhsMax =  -5.50051589187482E-03  2.02347453426034E-01
 cg2d: Sum(rhs),rhsMax =  -5.50142119189202E-03  2.02355262778646E-01
 cg2d: Sum(rhs),rhsMax =  -5.50232622657351E-03  2.02363071709405E-01
 cg2d: Sum(rhs),rhsMax =  -5.50323099419909E-03  2.02370880215842E-01
 cg2d: Sum(rhs),rhsMax =  -5.50413549351952E-03  2.02378688295507E-01
 cg2d: Sum(rhs),rhsMax =  -5.50503972324455E-03  2.02386495945953E-01
 cg2d: Sum(rhs),rhsMax =  -5.50594368167223E-03  2.02394303164716E-01
 cg2d: Sum(rhs),rhsMax =  -5.50684736807898E-03  2.02402109949348E-01
 cg2d: Sum(rhs),rhsMax =  -5.50775078109614E-03  2.02409916297390E-01
 cg2d: Sum(rhs),rhsMax =  -5.50865391905579E-03  2.02417722206381E-01
 cg2d: Sum(rhs),rhsMax =  -5.50955678063774E-03  2.02425527673870E-01
 cg2d: Sum(rhs),rhsMax =  -5.51045936483100E-03  2.02433332697390E-01
 cg2d: Sum(rhs),rhsMax =  -5.51136166985449E-03  2.02441137274489E-01
 cg2d: Sum(rhs),rhsMax =  -5.51226369427951E-03  2.02448941402706E-01
 cg2d: Sum(rhs),rhsMax =  -5.51316543661041E-03  2.02456745079574E-01
 cg2d: Sum(rhs),rhsMax =  -5.51406689571362E-03  2.02464548302644E-01
 cg2d: Sum(rhs),rhsMax =  -5.51496807015987E-03  2.02472351069440E-01
 cg2d: Sum(rhs),rhsMax =  -5.51586895828457E-03  2.02480153377504E-01
 cg2d: Sum(rhs),rhsMax =  -5.51676955929485E-03  2.02487955224381E-01
 cg2d: Sum(rhs),rhsMax =  -5.51766987066868E-03  2.02495756607593E-01
 cg2d: Sum(rhs),rhsMax =  -5.51856989188062E-03  2.02503557524684E-01
 cg2d: Sum(rhs),rhsMax =  -5.51946962079688E-03  2.02511357973189E-01
 cg2d: Sum(rhs),rhsMax =  -5.52036905615087E-03  2.02519157950634E-01
 cg2d: Sum(rhs),rhsMax =  -5.52126819657859E-03  2.02526957454555E-01
 cg2d: Sum(rhs),rhsMax =  -5.52216704008640E-03  2.02534756482491E-01
 cg2d: Sum(rhs),rhsMax =  -5.52306558596583E-03  2.02542555031962E-01
 cg2d: Sum(rhs),rhsMax =  -5.52396383205905E-03  2.02550353100510E-01
 cg2d: Sum(rhs),rhsMax =  -5.52486177672870E-03  2.02558150685657E-01
 cg2d: Sum(rhs),rhsMax =  -5.52575941897178E-03  2.02565947784935E-01
 cg2d: Sum(rhs),rhsMax =  -5.52665675692134E-03  2.02573744395870E-01
 cg2d: Sum(rhs),rhsMax =  -5.52755378839673E-03  2.02581540515997E-01
 cg2d: Sum(rhs),rhsMax =  -5.52845051314567E-03  2.02589336142831E-01
 cg2d: Sum(rhs),rhsMax =  -5.52934692853524E-03  2.02597131273910E-01
 cg2d: Sum(rhs),rhsMax =  -5.53024303273534E-03  2.02604925906752E-01
 cg2d: Sum(rhs),rhsMax =  -5.53113882528517E-03  2.02612720038888E-01
 cg2d: Sum(rhs),rhsMax =  -5.53203430326122E-03  2.02620513667839E-01
 cg2d: Sum(rhs),rhsMax =  -5.53292946575985E-03  2.02628306791122E-01
 cg2d: Sum(rhs),rhsMax =  -5.53382431102938E-03  2.02636099406273E-01
 cg2d: Sum(rhs),rhsMax =  -5.53471883737236E-03  2.02643891510802E-01
 cg2d: Sum(rhs),rhsMax =  -5.53561304267561E-03  2.02651683102237E-01
 cg2d: Sum(rhs),rhsMax =  -5.53650692575110E-03  2.02659474178095E-01
 cg2d: Sum(rhs),rhsMax =  -5.53740048483780E-03  2.02667264735902E-01
(PID.TID 0000.0001)      cg2d_init_res =   5.13740196906641E-04
(PID.TID 0000.0001)      cg2d_iters(min,last) =      -1      71
(PID.TID 0000.0001)      cg2d_last_res =   9.42218030779208E-08
(PID.TID 0000.0001) // =======================================================
(PID.TID 0000.0001) // Begin MONITOR dynamic field statistics
(PID.TID 0000.0001) // =======================================================
(PID.TID 0000.0001) %MON time_tsnumber                =                 13824
(PID.TID 0000.0001) %MON time_secondsf                =   1.6588800000000E+07
(PID.TID 0000.0001) %MON dynstat_eta_max              =   3.0331627897642E-01
(PID.TID 0000.0001) %MON dynstat_eta_min              =  -1.0115143953213E-01
(PID.TID 0000.0001) %MON dynstat_eta_mean             =   5.6094941218510E-06
(PID.TID 0000.0001) %MON dynstat_eta_sd               =   1.1920864823599E-01
(PID.TID 0000.0001) %MON dynstat_eta_del2             =   3.1460840854480E-05
(PID.TID 0000.0001) %MON dynstat_uvel_max             =   1.5294934557521E-01
(PID.TID 0000.0001) %MON dynstat_uvel_min             =  -1.1458053537509E-01
(PID.TID 0000.0001) %MON dynstat_uvel_mean            =  -1.1602785014843E-08
(PID.TID 0000.0001) %MON dynstat_uvel_sd              =   4.8891617942054E-02
(PID.TID 0000.0001) %MON dynstat_uvel_del2            =   7.0882974426298E-05
(PID.TID 0000.0001) %MON dynstat_vvel_max             =   9.6513673665010E-02
(PID.TID 0000.0001) %MON dynstat_vvel_min             =  -1.2631694766364E-01
(PID.TID 0000.0001) %MON dynstat_vvel_mean            =   1.2812397104205E-07
(PID.TID 0000.0001) %MON dynstat_vvel_sd              =   4.4520656535804E-02
(PID.TID 0000.0001) %MON dynstat_vvel_del2            =   4.0165429928474E-05
(PID.TID 0000.0001) %MON dynstat_wvel_max             =   1.4022026717721E-08
(PID.TID 0000.0001) %MON dynstat_wvel_min             =  -5.9815853799228E-09
(PID.TID 0000.0001) %MON dynstat_wvel_mean            =   1.1999070718755E-20
(PID.TID 0000.0001) %MON dynstat_wvel_sd              =   4.9787830671605E-09
(PID.TID 0000.0001) %MON dynstat_wvel_del2            =   1.6790682257493E-12
(PID.TID 0000.0001) %MON dynstat_theta_max            =   2.0000000000000E+01
(PID.TID 0000.0001) %MON dynstat_theta_min            =   2.0000000000000E+01
(PID.TID 0000.0001) %MON dynstat_theta_mean           =   2.0000000000000E+01
(PID.TID 0000.0001) %MON dynstat_theta_sd             =   3.8014036363165E-13
(PID.TID 0000.0001) %MON dynstat_theta_del2           =   0.0000000000000E+00
(PID.TID 0000.0001) %MON dynstat_salt_max             =   3.0000000000000E+01
(PID.TID 0000.0001) %MON dynstat_salt_min             =   3.0000000000000E+01
(PID.TID 0000.0001) %MON dynstat_salt_mean            =   2.9999999999999E+01
(PID.TID 0000.0001) %MON dynstat_salt_sd              =   5.5777604757167E-13
(PID.TID 0000.0001) %MON dynstat_salt_del2            =   0.0000000000000E+00
(PID.TID 0000.0001) %MON trAdv_CFL_u_max              =   9.1758643903642E-03
(PID.TID 0000.0001) %MON trAdv_CFL_v_max              =   7.5688866063293E-03
(PID.TID 0000.0001) %MON trAdv_CFL_w_max              =   3.7256954150398E-09
(PID.TID 0000.0001) %MON advcfl_uvel_max              =   9.1769607345125E-03
(PID.TID 0000.0001) %MON advcfl_vvel_max              =   7.5790168598183E-03
(PID.TID 0000.0001) %MON advcfl_wvel_max              =   6.7305728245061E-09
(PID.TID 0000.0001) %MON advcfl_W_hf_max              =   0.0000000000000E+00
(PID.TID 0000.0001) %MON pe_b_mean                    =   1.4569304530771E-05
(PID.TID 0000.0001) %MON ke_max                       =   1.1708625132657E-02
(PID.TID 0000.0001) %MON ke_mean                      =   2.1460376614260E-03
(PID.TID 0000.0001) %MON ke_vol                       =   6.8893493896486E+15
(PID.TID 0000.0001) %MON vort_r_min                   =  -9.8925669730534E-07
(PID.TID 0000.0001) %MON vort_r_max                   =   3.2999333586154E-06
(PID.TID 0000.0001) %MON vort_a_mean                  =   1.0600000000000E-04
(PID.TID 0000.0001) %MON vort_a_sd                    =   3.5657130835807E-06
(PID.TID 0000.0001) %MON vort_p_mean                  =   1.1652272308690E-04
(PID.TID 0000.0001) %MON vort_p_sd                    =   4.1788625787748E-05
(PID.TID 0000.0001) %MON surfExpan_theta_mean         =   2.3997838777884E-19
(PID.TID 0000.0001) %MON surfExpan_salt_mean          =   3.5996631848118E-19
(PID.TID 0000.0001) // =======================================================
(PID.TID 0000.0001) // End MONITOR dynamic field statistics
(PID.TID 0000.0001) // =======================================================
 cg2d: Sum(rhs),rhsMax =  -5.53829371824774E-03  2.02675054773168E-01
 cg2d: Sum(rhs),rhsMax =  -5.53918662371480E-03  2.02682844287414E-01
 cg2d: Sum(rhs),rhsMax =  -5.54007919999095E-03  2.02690633276162E-01
 cg2d: Sum(rhs),rhsMax =  -5.54097144515528E-03  2.02698421736926E-01
 cg2d: Sum(rhs),rhsMax =  -5.54186335745133E-03  2.02706209667219E-01
 cg2d: Sum(rhs),rhsMax =  -5.54275493499221E-03  2.02713997064562E-01
 cg2d: Sum(rhs),rhsMax =  -5.54364617619774E-03  2.02721783926464E-01
 cg2d: Sum(rhs),rhsMax =  -5.54453707893113E-03  2.02729570250444E-01
 cg2d: Sum(rhs),rhsMax =  -5.54542764166028E-03  2.02737356034010E-01
 cg2d: Sum(rhs),rhsMax =  -5.54631786239859E-03  2.02745141274682E-01
 cg2d: Sum(rhs),rhsMax =  -5.54720773926280E-03  2.02752925969961E-01
 cg2d: Sum(rhs),rhsMax =  -5.54809727047919E-03  2.02760710117365E-01
 cg2d: Sum(rhs),rhsMax =  -5.54898645464293E-03  2.02768493714405E-01
 cg2d: Sum(rhs),rhsMax =  -5.54987528891880E-03  2.02776276758587E-01
 cg2d: Sum(rhs),rhsMax =  -5.55076377212576E-03  2.02784059247420E-01
 cg2d: Sum(rhs),rhsMax =  -5.55165190188868E-03  2.02791841178415E-01
 cg2d: Sum(rhs),rhsMax =  -5.55253967630912E-03  2.02799622549078E-01
 cg2d: Sum(rhs),rhsMax =  -5.55342709380483E-03  2.02807403356908E-01
 cg2d: Sum(rhs),rhsMax =  -5.55431415205187E-03  2.02815183599422E-01
 cg2d: Sum(rhs),rhsMax =  -5.55520084921312E-03  2.02822963274119E-01
 cg2d: Sum(rhs),rhsMax =  -5.55608718299945E-03  2.02830742378501E-01
 cg2d: Sum(rhs),rhsMax =  -5.55697315196202E-03  2.02838520910079E-01
 cg2d: Sum(rhs),rhsMax =  -5.55785875354599E-03  2.02846298866350E-01
 cg2d: Sum(rhs),rhsMax =  -5.55874398606751E-03  2.02854076244818E-01
 cg2d: Sum(rhs),rhsMax =  -5.55962884746564E-03  2.02861853042987E-01
 cg2d: Sum(rhs),rhsMax =  -5.56051333533700E-03  2.02869629258349E-01
 cg2d: Sum(rhs),rhsMax =  -5.56139744805112E-03  2.02877404888410E-01
 cg2d: Sum(rhs),rhsMax =  -5.56228118328974E-03  2.02885179930671E-01
 cg2d: Sum(rhs),rhsMax =  -5.56316453915259E-03  2.02892954382626E-01
 cg2d: Sum(rhs),rhsMax =  -5.56404751336357E-03  2.02900728241775E-01
 cg2d: Sum(rhs),rhsMax =  -5.56493010346621E-03  2.02908501505609E-01
 cg2d: Sum(rhs),rhsMax =  -5.56581230738049E-03  2.02916274171634E-01
 cg2d: Sum(rhs),rhsMax =  -5.56669412349792E-03  2.02924046237338E-01
 cg2d: Sum(rhs),rhsMax =  -5.56757554912787E-03  2.02931817700215E-01
 cg2d: Sum(rhs),rhsMax =  -5.56845658212309E-03  2.02939588557761E-01
 cg2d: Sum(rhs),rhsMax =  -5.56933722035153E-03  2.02947358807471E-01
 cg2d: Sum(rhs),rhsMax =  -5.57021746190310E-03  2.02955128446835E-01
 cg2d: Sum(rhs),rhsMax =  -5.57109730405903E-03  2.02962897473348E-01
 cg2d: Sum(rhs),rhsMax =  -5.57197674464423E-03  2.02970665884491E-01
 cg2d: Sum(rhs),rhsMax =  -5.57285578140939E-03  2.02978433677768E-01
 cg2d: Sum(rhs),rhsMax =  -5.57373441203513E-03  2.02986200850662E-01
 cg2d: Sum(rhs),rhsMax =  -5.57461263430423E-03  2.02993967400655E-01
 cg2d: Sum(rhs),rhsMax =  -5.57549044597944E-03  2.03001733325245E-01
 cg2d: Sum(rhs),rhsMax =  -5.57636784440931E-03  2.03009498621912E-01
 cg2d: Sum(rhs),rhsMax =  -5.57724482788836E-03  2.03017263288145E-01
 cg2d: Sum(rhs),rhsMax =  -5.57812139285673E-03  2.03025027321428E-01
 cg2d: Sum(rhs),rhsMax =  -5.57899753785685E-03  2.03032790719251E-01
 cg2d: Sum(rhs),rhsMax =  -5.57987326021270E-03  2.03040553479094E-01
 cg2d: Sum(rhs),rhsMax =  -5.58074855751839E-03  2.03048315598435E-01
 cg2d: Sum(rhs),rhsMax =  -5.58162342746843E-03  2.03056077074768E-01
 cg2d: Sum(rhs),rhsMax =  -5.58249786770921E-03  2.03063837905565E-01
 cg2d: Sum(rhs),rhsMax =  -5.58337187532234E-03  2.03071598088312E-01
 cg2d: Sum(rhs),rhsMax =  -5.58424544797270E-03  2.03079357620490E-01
 cg2d: Sum(rhs),rhsMax =  -5.58511858294078E-03  2.03087116499576E-01
 cg2d: Sum(rhs),rhsMax =  -5.58599127784615E-03  2.03094874723048E-01
 cg2d: Sum(rhs),rhsMax =  -5.58686353060045E-03  2.03102632288389E-01
 cg2d: Sum(rhs),rhsMax =  -5.58773533804069E-03  2.03110389193072E-01
 cg2d: Sum(rhs),rhsMax =  -5.58860669799996E-03  2.03118145434573E-01
 cg2d: Sum(rhs),rhsMax =  -5.58947760755155E-03  2.03125901010368E-01
 cg2d: Sum(rhs),rhsMax =  -5.59034806390941E-03  2.03133655917934E-01
 cg2d: Sum(rhs),rhsMax =  -5.59121806498993E-03  2.03141410154747E-01
 cg2d: Sum(rhs),rhsMax =  -5.59208760784809E-03  2.03149163718276E-01
 cg2d: Sum(rhs),rhsMax =  -5.59295668943843E-03  2.03156916605996E-01
 cg2d: Sum(rhs),rhsMax =  -5.59382530751181E-03  2.03164668815377E-01
 cg2d: Sum(rhs),rhsMax =  -5.59469345902918E-03  2.03172420343895E-01
 cg2d: Sum(rhs),rhsMax =  -5.59556114162886E-03  2.03180171189021E-01
 cg2d: Sum(rhs),rhsMax =  -5.59642835243144E-03  2.03187921348216E-01
 cg2d: Sum(rhs),rhsMax =  -5.59729508853215E-03  2.03195670818957E-01
 cg2d: Sum(rhs),rhsMax =  -5.59816134712891E-03  2.03203419598706E-01
 cg2d: Sum(rhs),rhsMax =  -5.59902712536839E-03  2.03211167684933E-01
 cg2d: Sum(rhs),rhsMax =  -5.59989242029107E-03  2.03218915075113E-01
 cg2d: Sum(rhs),rhsMax =  -5.60075722945797E-03  2.03226661766702E-01
(PID.TID 0000.0001)      cg2d_init_res =   5.12884427031823E-04
(PID.TID 0000.0001)      cg2d_iters(min,last) =      -1      71
(PID.TID 0000.0001)      cg2d_last_res =   9.31944455627913E-08
(PID.TID 0000.0001) // =======================================================
(PID.TID 0000.0001) // Begin MONITOR dynamic field statistics
(PID.TID 0000.0001) // =======================================================
(PID.TID 0000.0001) %MON time_tsnumber                =                 13896
(PID.TID 0000.0001) %MON time_secondsf                =   1.6675200000000E+07
(PID.TID 0000.0001) %MON dynstat_eta_max              =   3.0449946016652E-01
(PID.TID 0000.0001) %MON dynstat_eta_min              =  -1.0138437950933E-01
(PID.TID 0000.0001) %MON dynstat_eta_mean             =   5.6892944882236E-06
(PID.TID 0000.0001) %MON dynstat_eta_sd               =   1.1961511270230E-01
(PID.TID 0000.0001) %MON dynstat_eta_del2             =   3.1553506595677E-05
(PID.TID 0000.0001) %MON dynstat_uvel_max             =   1.5339635201717E-01
(PID.TID 0000.0001) %MON dynstat_uvel_min             =  -1.1506068821060E-01
(PID.TID 0000.0001) %MON dynstat_uvel_mean            =  -1.0953339823180E-08
(PID.TID 0000.0001) %MON dynstat_uvel_sd              =   4.9051112550692E-02
(PID.TID 0000.0001) %MON dynstat_uvel_del2            =   7.1035684234865E-05
(PID.TID 0000.0001) %MON dynstat_vvel_max             =   9.6922834028865E-02
(PID.TID 0000.0001) %MON dynstat_vvel_min             =  -1.2662527407027E-01
(PID.TID 0000.0001) %MON dynstat_vvel_mean            =   1.2629604262690E-07
(PID.TID 0000.0001) %MON dynstat_vvel_sd              =   4.4681223594562E-02
(PID.TID 0000.0001) %MON dynstat_vvel_del2            =   4.0094491437729E-05
(PID.TID 0000.0001) %MON dynstat_wvel_max             =   1.3961599833856E-08
(PID.TID 0000.0001) %MON dynstat_wvel_min             =  -5.8635340956971E-09
(PID.TID 0000.0001) %MON dynstat_wvel_mean            =  -2.8067708828732E-21
(PID.TID 0000.0001) %MON dynstat_wvel_sd              =   4.9485719774369E-09
(PID.TID 0000.0001) %MON dynstat_wvel_del2            =   1.6820640675990E-12
(PID.TID 0000.0001) %MON dynstat_theta_max            =   2.0000000000000E+01
(PID.TID 0000.0001) %MON dynstat_theta_min            =   2.0000000000000E+01
(PID.TID 0000.0001) %MON dynstat_theta_mean           =   2.0000000000000E+01
(PID.TID 0000.0001) %MON dynstat_theta_sd             =   3.8014036363165E-13
(PID.TID 0000.0001) %MON dynstat_theta_del2           =   0.0000000000000E+00
(PID.TID 0000.0001) %MON dynstat_salt_max             =   3.0000000000000E+01
(PID.TID 0000.0001) %MON dynstat_salt_min             =   3.0000000000000E+01
(PID.TID 0000.0001) %MON dynstat_salt_mean            =   2.9999999999999E+01
(PID.TID 0000.0001) %MON dynstat_salt_sd              =   5.5777604757167E-13
(PID.TID 0000.0001) %MON dynstat_salt_del2            =   0.0000000000000E+00
(PID.TID 0000.0001) %MON trAdv_CFL_u_max              =   9.2026801049811E-03
(PID.TID 0000.0001) %MON trAdv_CFL_v_max              =   7.5873708153336E-03
(PID.TID 0000.0001) %MON trAdv_CFL_w_max              =   3.7096533642368E-09
(PID.TID 0000.0001) %MON advcfl_uvel_max              =   9.2037811210301E-03
(PID.TID 0000.0001) %MON advcfl_vvel_max              =   7.5975164442160E-03
(PID.TID 0000.0001) %MON advcfl_wvel_max              =   6.7015679202508E-09
(PID.TID 0000.0001) %MON advcfl_W_hf_max              =   0.0000000000000E+00
(PID.TID 0000.0001) %MON pe_b_mean                    =   1.4668827520891E-05
(PID.TID 0000.0001) %MON ke_max                       =   1.1776578558143E-02
(PID.TID 0000.0001) %MON ke_mean                      =   2.1607344555329E-03
(PID.TID 0000.0001) %MON ke_vol                       =   6.8893493896486E+15
(PID.TID 0000.0001) %MON vort_r_min                   =  -9.8931229779515E-07
(PID.TID 0000.0001) %MON vort_r_max                   =   3.3094713870900E-06
(PID.TID 0000.0001) %MON vort_a_mean                  =   1.0600000000000E-04
(PID.TID 0000.0001) %MON vort_a_sd                    =   3.5659608533627E-06
(PID.TID 0000.0001) %MON vort_p_mean                  =   1.1652272308690E-04
(PID.TID 0000.0001) %MON vort_p_sd                    =   4.1788692352366E-05
(PID.TID 0000.0001) %MON surfExpan_theta_mean         =  -5.6104138618846E-20
(PID.TID 0000.0001) %MON surfExpan_salt_mean          =  -8.4150997281540E-20
(PID.TID 0000.0001) // =======================================================
(PID.TID 0000.0001) // End MONITOR dynamic field statistics
(PID.TID 0000.0001) // =======================================================
 cg2d: Sum(rhs),rhsMax =  -5.60162154984551E-03  2.03234407757168E-01
 cg2d: Sum(rhs),rhsMax =  -5.60248537823351E-03  2.03242153043975E-01
 cg2d: Sum(rhs),rhsMax =  -5.60334871218721E-03  2.03249897624590E-01
 cg2d: Sum(rhs),rhsMax =  -5.60421154802824E-03  2.03257641496473E-01
 cg2d: Sum(rhs),rhsMax =  -5.60507388343690E-03  2.03265384657087E-01
 cg2d: Sum(rhs),rhsMax =  -5.60593571548893E-03  2.03273127103894E-01
 cg2d: Sum(rhs),rhsMax =  -5.60679704083109E-03  2.03280868834348E-01
 cg2d: Sum(rhs),rhsMax =  -5.60765785630103E-03  2.03288609845921E-01
 cg2d: Sum(rhs),rhsMax =  -5.60851815948371E-03  2.03296350136063E-01
 cg2d: Sum(rhs),rhsMax =  -5.60937794658010E-03  2.03304089702239E-01
 cg2d: Sum(rhs),rhsMax =  -5.61023721505183E-03  2.03311828541905E-01
 cg2d: Sum(rhs),rhsMax =  -5.61109596133209E-03  2.03319566652512E-01
 cg2d: Sum(rhs),rhsMax =  -5.61195418262231E-03  2.03327304031525E-01
 cg2d: Sum(rhs),rhsMax =  -5.61281187582791E-03  2.03335040676398E-01
 cg2d: Sum(rhs),rhsMax =  -5.61366903745407E-03  2.03342776584578E-01
 cg2d: Sum(rhs),rhsMax =  -5.61452566398279E-03  2.03350511753525E-01
 cg2d: Sum(rhs),rhsMax =  -5.61538175294816E-03  2.03358246180692E-01
 cg2d: Sum(rhs),rhsMax =  -5.61623730082881E-03  2.03365979863530E-01
 cg2d: Sum(rhs),rhsMax =  -5.61709230432959E-03  2.03373712799493E-01
 cg2d: Sum(rhs),rhsMax =  -5.61794675989619E-03  2.03381444986032E-01
 cg2d: Sum(rhs),rhsMax =  -5.61880066460253E-03  2.03389176420596E-01
 cg2d: Sum(rhs),rhsMax =  -5.61965401445218E-03  2.03396907100633E-01
 cg2d: Sum(rhs),rhsMax =  -5.62050680651525E-03  2.03404637023597E-01
 cg2d: Sum(rhs),rhsMax =  -5.62135903778697E-03  2.03412366186928E-01
 cg2d: Sum(rhs),rhsMax =  -5.62221070406251E-03  2.03420094588081E-01
 cg2d: Sum(rhs),rhsMax =  -5.62306180250166E-03  2.03427822224498E-01
 cg2d: Sum(rhs),rhsMax =  -5.62391232910303E-03  2.03435549093628E-01
 cg2d: Sum(rhs),rhsMax =  -5.62476228085580E-03  2.03443275192911E-01
 cg2d: Sum(rhs),rhsMax =  -5.62561165414455E-03  2.03451000519800E-01
 cg2d: Sum(rhs),rhsMax =  -5.62646044478977E-03  2.03458725071727E-01
 cg2d: Sum(rhs),rhsMax =  -5.62730865011326E-03  2.03466448846142E-01
 cg2d: Sum(rhs),rhsMax =  -5.62815626611904E-03  2.03474171840488E-01
 cg2d: Sum(rhs),rhsMax =  -5.62900328925046E-03  2.03481894052206E-01
 cg2d: Sum(rhs),rhsMax =  -5.62984971610088E-03  2.03489615478735E-01
 cg2d: Sum(rhs),rhsMax =  -5.63069554244997E-03  2.03497336117510E-01
 cg2d: Sum(rhs),rhsMax =  -5.63154076511900E-03  2.03505055965981E-01
 cg2d: Sum(rhs),rhsMax =  -5.63238537991754E-03  2.03512775021576E-01
 cg2d: Sum(rhs),rhsMax =  -5.63322938327035E-03  2.03520493281743E-01
 cg2d: Sum(rhs),rhsMax =  -5.63407277146111E-03  2.03528210743906E-01
 cg2d: Sum(rhs),rhsMax =  -5.63491554036991E-03  2.03535927405514E-01
 cg2d: Sum(rhs),rhsMax =  -5.63575768684303E-03  2.03543643263993E-01
 cg2d: Sum(rhs),rhsMax =  -5.63659920590057E-03  2.03551358316781E-01
 cg2d: Sum(rhs),rhsMax =  -5.63744009518129E-03  2.03559072561314E-01
 cg2d: Sum(rhs),rhsMax =  -5.63828034955921E-03  2.03566785995021E-01
 cg2d: Sum(rhs),rhsMax =  -5.63911996523654E-03  2.03574498615343E-01
 cg2d: Sum(rhs),rhsMax =  -5.63995893866081E-03  2.03582210419698E-01
 cg2d: Sum(rhs),rhsMax =  -5.64079726525451E-03  2.03589921405528E-01
 cg2d: Sum(rhs),rhsMax =  -5.64163494132438E-03  2.03597631570262E-01
 cg2d: Sum(rhs),rhsMax =  -5.64247196276371E-03  2.03605340911327E-01
 cg2d: Sum(rhs),rhsMax =  -5.64330832583909E-03  2.03613049426153E-01
 cg2d: Sum(rhs),rhsMax =  -5.64414402566588E-03  2.03620757112165E-01
 cg2d: Sum(rhs),rhsMax =  -5.64497905873333E-03  2.03628463966794E-01
 cg2d: Sum(rhs),rhsMax =  -5.64581342018589E-03  2.03636169987466E-01
 cg2d: Sum(rhs),rhsMax =  -5.64664710633037E-03  2.03643875171607E-01
 cg2d: Sum(rhs),rhsMax =  -5.64748011257028E-03  2.03651579516638E-01
 cg2d: Sum(rhs),rhsMax =  -5.64831243508003E-03  2.03659283019988E-01
 cg2d: Sum(rhs),rhsMax =  -5.64914406953292E-03  2.03666985679081E-01
 cg2d: Sum(rhs),rhsMax =  -5.64997501132116E-03  2.03674687491339E-01
 cg2d: Sum(rhs),rhsMax =  -5.65080525586067E-03  2.03682388454184E-01
 cg2d: Sum(rhs),rhsMax =  -5.65163479918080E-03  2.03690088565038E-01
 cg2d: Sum(rhs),rhsMax =  -5.65246363630200E-03  2.03697787821316E-01
 cg2d: Sum(rhs),rhsMax =  -5.65329176348223E-03  2.03705486220450E-01
 cg2d: Sum(rhs),rhsMax =  -5.65411917594615E-03  2.03713183759849E-01
 cg2d: Sum(rhs),rhsMax =  -5.65494586904412E-03  2.03720880436936E-01
 cg2d: Sum(rhs),rhsMax =  -5.65577183802294E-03  2.03728576249129E-01
 cg2d: Sum(rhs),rhsMax =  -5.65659707847232E-03  2.03736271193843E-01
 cg2d: Sum(rhs),rhsMax =  -5.65742158555528E-03  2.03743965268496E-01
 cg2d: Sum(rhs),rhsMax =  -5.65824535494366E-03  2.03751658470506E-01
 cg2d: Sum(rhs),rhsMax =  -5.65906838211909E-03  2.03759350797283E-01
 cg2d: Sum(rhs),rhsMax =  -5.65989066165762E-03  2.03767042246243E-01
 cg2d: Sum(rhs),rhsMax =  -5.66071218952601E-03  2.03774732814804E-01
 cg2d: Sum(rhs),rhsMax =  -5.66152757498046E-03  2.03782616340334E-01
(PID.TID 0000.0001)      cg2d_init_res =   5.11507613333040E-04
(PID.TID 0000.0001)      cg2d_iters(min,last) =      -1      71
(PID.TID 0000.0001)      cg2d_last_res =   9.23711908386275E-08
(PID.TID 0000.0001) // =======================================================
(PID.TID 0000.0001) // Begin MONITOR dynamic field statistics
(PID.TID 0000.0001) // =======================================================
(PID.TID 0000.0001) %MON time_tsnumber                =                 13968
(PID.TID 0000.0001) %MON time_secondsf                =   1.6761600000000E+07
(PID.TID 0000.0001) %MON dynstat_eta_max              =   3.0567893350022E-01
(PID.TID 0000.0001) %MON dynstat_eta_min              =  -1.0161127856642E-01
(PID.TID 0000.0001) %MON dynstat_eta_mean             =   5.7667013231186E-06
(PID.TID 0000.0001) %MON dynstat_eta_sd               =   1.2001937348399E-01
(PID.TID 0000.0001) %MON dynstat_eta_del2             =   3.1646385143749E-05
(PID.TID 0000.0001) %MON dynstat_uvel_max             =   1.5384613932709E-01
(PID.TID 0000.0001) %MON dynstat_uvel_min             =  -1.1553173946458E-01
(PID.TID 0000.0001) %MON dynstat_uvel_mean            =  -1.0864073148328E-08
(PID.TID 0000.0001) %MON dynstat_uvel_sd              =   4.9208734653688E-02
(PID.TID 0000.0001) %MON dynstat_uvel_del2            =   7.1190373800067E-05
(PID.TID 0000.0001) %MON dynstat_vvel_max             =   9.7335084362181E-02
(PID.TID 0000.0001) %MON dynstat_vvel_min             =  -1.2692395302139E-01
(PID.TID 0000.0001) %MON dynstat_vvel_mean            =   1.2486760181918E-07
(PID.TID 0000.0001) %MON dynstat_vvel_sd              =   4.4842346676213E-02
(PID.TID 0000.0001) %MON dynstat_vvel_del2            =   4.0015855867454E-05
(PID.TID 0000.0001) %MON dynstat_wvel_max             =   1.3897673555475E-08
(PID.TID 0000.0001) %MON dynstat_wvel_min             =  -5.7379354920704E-09
(PID.TID 0000.0001) %MON dynstat_wvel_mean            =  -1.2570646706283E-21
(PID.TID 0000.0001) %MON dynstat_wvel_sd              =   4.9210593080859E-09
(PID.TID 0000.0001) %MON dynstat_wvel_del2            =   1.6844084244902E-12
(PID.TID 0000.0001) %MON dynstat_theta_max            =   2.0000000000000E+01
(PID.TID 0000.0001) %MON dynstat_theta_min            =   2.0000000000000E+01
(PID.TID 0000.0001) %MON dynstat_theta_mean           =   2.0000000000000E+01
(PID.TID 0000.0001) %MON dynstat_theta_sd             =   3.8014036363165E-13
(PID.TID 0000.0001) %MON dynstat_theta_del2           =   0.0000000000000E+00
(PID.TID 0000.0001) %MON dynstat_salt_max             =   3.0000000000000E+01
(PID.TID 0000.0001) %MON dynstat_salt_min             =   3.0000000000000E+01
(PID.TID 0000.0001) %MON dynstat_salt_mean            =   2.9999999999999E+01
(PID.TID 0000.0001) %MON dynstat_salt_sd              =   5.5777604757167E-13
(PID.TID 0000.0001) %MON dynstat_salt_del2            =   0.0000000000000E+00
(PID.TID 0000.0001) %MON trAdv_CFL_u_max              =   9.2296631273498E-03
(PID.TID 0000.0001) %MON trAdv_CFL_v_max              =   7.6052755489809E-03
(PID.TID 0000.0001) %MON trAdv_CFL_w_max              =   3.6926819508268E-09
(PID.TID 0000.0001) %MON advcfl_uvel_max              =   9.2307683596252E-03
(PID.TID 0000.0001) %MON advcfl_vvel_max              =   7.6154371812836E-03
(PID.TID 0000.0001) %MON advcfl_wvel_max              =   6.6708833066281E-09
(PID.TID 0000.0001) %MON advcfl_W_hf_max              =   0.0000000000000E+00
(PID.TID 0000.0001) %MON pe_b_mean                    =   1.4768146952876E-05
(PID.TID 0000.0001) %MON ke_max                       =   1.1845140049931E-02
(PID.TID 0000.0001) %MON ke_mean                      =   2.1754155518488E-03
(PID.TID 0000.0001) %MON ke_vol                       =   6.8893493896486E+15
(PID.TID 0000.0001) %MON vort_r_min                   =  -9.8964101366591E-07
(PID.TID 0000.0001) %MON vort_r_max                   =   3.3190358234382E-06
(PID.TID 0000.0001) %MON vort_a_mean                  =   1.0600000000000E-04
(PID.TID 0000.0001) %MON vort_a_sd                    =   3.5662075894641E-06
(PID.TID 0000.0001) %MON vort_p_mean                  =   1.1652272308690E-04
(PID.TID 0000.0001) %MON vort_p_sd                    =   4.1788760538256E-05
(PID.TID 0000.0001) %MON surfExpan_theta_mean         =  -2.5132054462220E-20
(PID.TID 0000.0001) %MON surfExpan_salt_mean          =  -3.7692871046602E-20
(PID.TID 0000.0001) // =======================================================
(PID.TID 0000.0001) // End MONITOR dynamic field statistics
(PID.TID 0000.0001) // =======================================================
 cg2d: Sum(rhs),rhsMax =  -5.66233952609157E-03  2.03790595136652E-01
 cg2d: Sum(rhs),rhsMax =  -5.66315070981135E-03  2.03798573001593E-01
 cg2d: Sum(rhs),rhsMax =  -5.66396112189561E-03  2.03806549932726E-01
 cg2d: Sum(rhs),rhsMax =  -5.66477075694358E-03  2.03814525927617E-01
 cg2d: Sum(rhs),rhsMax =  -5.66557960972785E-03  2.03822500983831E-01
 cg2d: Sum(rhs),rhsMax =  -5.66638767610873E-03  2.03830475098936E-01
 cg2d: Sum(rhs),rhsMax =  -5.66719495031014E-03  2.03838448270499E-01
 cg2d: Sum(rhs),rhsMax =  -5.66800142698264E-03  2.03846420496085E-01
 cg2d: Sum(rhs),rhsMax =  -5.66880710163862E-03  2.03854391773262E-01
 cg2d: Sum(rhs),rhsMax =  -5.66961196895730E-03  2.03862362099600E-01
 cg2d: Sum(rhs),rhsMax =  -5.67041602357861E-03  2.03870331472666E-01
 cg2d: Sum(rhs),rhsMax =  -5.67121926071344E-03  2.03878299890019E-01
 cg2d: Sum(rhs),rhsMax =  -5.67202167460777E-03  2.03886267349235E-01
 cg2d: Sum(rhs),rhsMax =  -5.67282326002824E-03  2.03894233847882E-01
 cg2d: Sum(rhs),rhsMax =  -5.67362401162863E-03  2.03902199383526E-01
 cg2d: Sum(rhs),rhsMax =  -5.67442392393006E-03  2.03910163953733E-01
 cg2d: Sum(rhs),rhsMax =  -5.67522299179794E-03  2.03918127556074E-01
 cg2d: Sum(rhs),rhsMax =  -5.67602120982603E-03  2.03926090188115E-01
 cg2d: Sum(rhs),rhsMax =  -5.67681857213409E-03  2.03934051847430E-01
 cg2d: Sum(rhs),rhsMax =  -5.67761507292575E-03  2.03942012531577E-01
 cg2d: Sum(rhs),rhsMax =  -5.67841070712121E-03  2.03949972238133E-01
 cg2d: Sum(rhs),rhsMax =  -5.67920546922706E-03  2.03957930964662E-01
 cg2d: Sum(rhs),rhsMax =  -5.67999935271633E-03  2.03965888708741E-01
 cg2d: Sum(rhs),rhsMax =  -5.68079235273573E-03  2.03973845467927E-01
 cg2d: Sum(rhs),rhsMax =  -5.68158446341347E-03  2.03981801239802E-01
 cg2d: Sum(rhs),rhsMax =  -5.68237567840096E-03  2.03989756021926E-01
 cg2d: Sum(rhs),rhsMax =  -5.68316599254211E-03  2.03997709811869E-01
 cg2d: Sum(rhs),rhsMax =  -5.68395539956125E-03  2.04005662607202E-01
 cg2d: Sum(rhs),rhsMax =  -5.68474389355259E-03  2.04013614405504E-01
 cg2d: Sum(rhs),rhsMax =  -5.68553146855205E-03  2.04021565204332E-01
 cg2d: Sum(rhs),rhsMax =  -5.68631811896205E-03  2.04029515001255E-01
 cg2d: Sum(rhs),rhsMax =  -5.68710383801074E-03  2.04037463793856E-01
 cg2d: Sum(rhs),rhsMax =  -5.68788862015094E-03  2.04045411579694E-01
 cg2d: Sum(rhs),rhsMax =  -5.68867245891765E-03  2.04053358356345E-01
 cg2d: Sum(rhs),rhsMax =  -5.68945534842388E-03  2.04061304121378E-01
 cg2d: Sum(rhs),rhsMax =  -5.69023728215023E-03  2.04069248872363E-01
 cg2d: Sum(rhs),rhsMax =  -5.69101825386420E-03  2.04077192606870E-01
 cg2d: Sum(rhs),rhsMax =  -5.69179825753563E-03  2.04085135322474E-01
 cg2d: Sum(rhs),rhsMax =  -5.69257728675554E-03  2.04093077016744E-01
 cg2d: Sum(rhs),rhsMax =  -5.69335533495157E-03  2.04101017687248E-01
 cg2d: Sum(rhs),rhsMax =  -5.69413239588204E-03  2.04108957331556E-01
 cg2d: Sum(rhs),rhsMax =  -5.69490846302005E-03  2.04116895947249E-01
 cg2d: Sum(rhs),rhsMax =  -5.69568352978276E-03  2.04124833531889E-01
 cg2d: Sum(rhs),rhsMax =  -5.69645758955941E-03  2.04132770083052E-01
 cg2d: Sum(rhs),rhsMax =  -5.69723063551089E-03  2.04140705598311E-01
 cg2d: Sum(rhs),rhsMax =  -5.69800266132164E-03  2.04148640075234E-01
 cg2d: Sum(rhs),rhsMax =  -5.69877366028394E-03  2.04156573511398E-01
 cg2d: Sum(rhs),rhsMax =  -5.69954362500026E-03  2.04164505904371E-01
 cg2d: Sum(rhs),rhsMax =  -5.70031254939561E-03  2.04172437251725E-01
 cg2d: Sum(rhs),rhsMax =  -5.70108042647768E-03  2.04180367551037E-01
 cg2d: Sum(rhs),rhsMax =  -5.70184724858789E-03  2.04188296799878E-01
 cg2d: Sum(rhs),rhsMax =  -5.70261300978513E-03  2.04196224995819E-01
 cg2d: Sum(rhs),rhsMax =  -5.70337770251324E-03  2.04204152136435E-01
 cg2d: Sum(rhs),rhsMax =  -5.70414131992305E-03  2.04212078219294E-01
 cg2d: Sum(rhs),rhsMax =  -5.70490385497421E-03  2.04220003241981E-01
 cg2d: Sum(rhs),rhsMax =  -5.70566530015645E-03  2.04227927202052E-01
 cg2d: Sum(rhs),rhsMax =  -5.70642564860649E-03  2.04235850097094E-01
 cg2d: Sum(rhs),rhsMax =  -5.70718489280349E-03  2.04243771924679E-01
 cg2d: Sum(rhs),rhsMax =  -5.70794302562468E-03  2.04251692682376E-01
 cg2d: Sum(rhs),rhsMax =  -5.70870004023560E-03  2.04259612367760E-01
 cg2d: Sum(rhs),rhsMax =  -5.70945592821844E-03  2.04267530978405E-01
 cg2d: Sum(rhs),rhsMax =  -5.71021068245713E-03  2.04275448511888E-01
 cg2d: Sum(rhs),rhsMax =  -5.71096429600433E-03  2.04283364965788E-01
 cg2d: Sum(rhs),rhsMax =  -5.71171676038517E-03  2.04291280337668E-01
 cg2d: Sum(rhs),rhsMax =  -5.71246806899913E-03  2.04299194625108E-01
 cg2d: Sum(rhs),rhsMax =  -5.71321821343004E-03  2.04307107825684E-01
 cg2d: Sum(rhs),rhsMax =  -5.71396718670751E-03  2.04315019936969E-01
 cg2d: Sum(rhs),rhsMax =  -5.71471498020935E-03  2.04322930956537E-01
 cg2d: Sum(rhs),rhsMax =  -5.71546158648109E-03  2.04330840881964E-01
 cg2d: Sum(rhs),rhsMax =  -5.71620699823880E-03  2.04338749710826E-01
 cg2d: Sum(rhs),rhsMax =  -5.71695120692001E-03  2.04346657440700E-01
 cg2d: Sum(rhs),rhsMax =  -5.71769420476087E-03  2.04354564069159E-01
(PID.TID 0000.0001)      cg2d_init_res =   5.09476576054343E-04
(PID.TID 0000.0001)      cg2d_iters(min,last) =      -1      71
(PID.TID 0000.0001)      cg2d_last_res =   9.19472352668999E-08
(PID.TID 0000.0001) // =======================================================
(PID.TID 0000.0001) // Begin MONITOR dynamic field statistics
(PID.TID 0000.0001) // =======================================================
(PID.TID 0000.0001) %MON time_tsnumber                =                 14040
(PID.TID 0000.0001) %MON time_secondsf                =   1.6848000000000E+07
(PID.TID 0000.0001) %MON dynstat_eta_max              =   3.0685515694633E-01
(PID.TID 0000.0001) %MON dynstat_eta_min              =  -1.0183209595732E-01
(PID.TID 0000.0001) %MON dynstat_eta_mean             =   5.8401744461055E-06
(PID.TID 0000.0001) %MON dynstat_eta_sd               =   1.2042168799802E-01
(PID.TID 0000.0001) %MON dynstat_eta_del2             =   3.1739340092344E-05
(PID.TID 0000.0001) %MON dynstat_uvel_max             =   1.5429812694026E-01
(PID.TID 0000.0001) %MON dynstat_uvel_min             =  -1.1599448672071E-01
(PID.TID 0000.0001) %MON dynstat_uvel_mean            =  -1.1152151799964E-08
(PID.TID 0000.0001) %MON dynstat_uvel_sd              =   4.9364843605009E-02
(PID.TID 0000.0001) %MON dynstat_uvel_del2            =   7.1346605583284E-05
(PID.TID 0000.0001) %MON dynstat_vvel_max             =   9.7751908718470E-02
(PID.TID 0000.0001) %MON dynstat_vvel_min             =  -1.2721475358358E-01
(PID.TID 0000.0001) %MON dynstat_vvel_mean            =   1.2391916545419E-07
(PID.TID 0000.0001) %MON dynstat_vvel_sd              =   4.5003636199914E-02
(PID.TID 0000.0001) %MON dynstat_vvel_del2            =   3.9929693959023E-05
(PID.TID 0000.0001) %MON dynstat_wvel_max             =   1.3838129022324E-08
(PID.TID 0000.0001) %MON dynstat_wvel_min             =  -5.6145842175465E-09
(PID.TID 0000.0001) %MON dynstat_wvel_mean            =   1.0534262805272E-21
(PID.TID 0000.0001) %MON dynstat_wvel_sd              =   4.8968250456901E-09
(PID.TID 0000.0001) %MON dynstat_wvel_del2            =   1.6855139994135E-12
(PID.TID 0000.0001) %MON dynstat_theta_max            =   2.0000000000000E+01
(PID.TID 0000.0001) %MON dynstat_theta_min            =   2.0000000000000E+01
(PID.TID 0000.0001) %MON dynstat_theta_mean           =   2.0000000000000E+01
(PID.TID 0000.0001) %MON dynstat_theta_sd             =   3.8014036363165E-13
(PID.TID 0000.0001) %MON dynstat_theta_del2           =   0.0000000000000E+00
(PID.TID 0000.0001) %MON dynstat_salt_max             =   3.0000000000000E+01
(PID.TID 0000.0001) %MON dynstat_salt_min             =   3.0000000000000E+01
(PID.TID 0000.0001) %MON dynstat_salt_mean            =   2.9999999999999E+01
(PID.TID 0000.0001) %MON dynstat_salt_sd              =   5.5777604757167E-13
(PID.TID 0000.0001) %MON dynstat_salt_del2            =   0.0000000000000E+00
(PID.TID 0000.0001) %MON trAdv_CFL_u_max              =   9.2567786557669E-03
(PID.TID 0000.0001) %MON trAdv_CFL_v_max              =   7.6227066381351E-03
(PID.TID 0000.0001) %MON trAdv_CFL_w_max              =   3.6752232474618E-09
(PID.TID 0000.0001) %MON advcfl_uvel_max              =   9.2578876164156E-03
(PID.TID 0000.0001) %MON advcfl_vvel_max              =   7.6328852150146E-03
(PID.TID 0000.0001) %MON advcfl_wvel_max              =   6.6423019307156E-09
(PID.TID 0000.0001) %MON advcfl_W_hf_max              =   0.0000000000000E+00
(PID.TID 0000.0001) %MON pe_b_mean                    =   1.4867320908225E-05
(PID.TID 0000.0001) %MON ke_max                       =   1.1914224554851E-02
(PID.TID 0000.0001) %MON ke_mean                      =   2.1900805479887E-03
(PID.TID 0000.0001) %MON ke_vol                       =   6.8893493896486E+15
(PID.TID 0000.0001) %MON vort_r_min                   =  -9.9020898592080E-07
(PID.TID 0000.0001) %MON vort_r_max                   =   3.3286126652908E-06
(PID.TID 0000.0001) %MON vort_a_mean                  =   1.0600000000000E-04
(PID.TID 0000.0001) %MON vort_a_sd                    =   3.5664529368836E-06
(PID.TID 0000.0001) %MON vort_p_mean                  =   1.1652272308690E-04
(PID.TID 0000.0001) %MON vort_p_sd                    =   4.1788830581547E-05
(PID.TID 0000.0001) %MON surfExpan_theta_mean         =   2.1057960313758E-20
(PID.TID 0000.0001) %MON surfExpan_salt_mean          =   3.1579361348122E-20
(PID.TID 0000.0001) // =======================================================
(PID.TID 0000.0001) // End MONITOR dynamic field statistics
(PID.TID 0000.0001) // =======================================================
 cg2d: Sum(rhs),rhsMax =  -5.71843598381542E-03  2.04362469593784E-01
 cg2d: Sum(rhs),rhsMax =  -5.71917653568318E-03  2.04370374012141E-01
 cg2d: Sum(rhs),rhsMax =  -5.71991585269472E-03  2.04378277321813E-01
 cg2d: Sum(rhs),rhsMax =  -5.72065392630319E-03  2.04386179520378E-01
 cg2d: Sum(rhs),rhsMax =  -5.72139074858500E-03  2.04394080605405E-01
 cg2d: Sum(rhs),rhsMax =  -5.72212631129867E-03  2.04401980574478E-01
 cg2d: Sum(rhs),rhsMax =  -5.72286060608253E-03  2.04409879425169E-01
 cg2d: Sum(rhs),rhsMax =  -5.72359362427245E-03  2.04417777155057E-01
 cg2d: Sum(rhs),rhsMax =  -5.72432535776619E-03  2.04425673761713E-01
 cg2d: Sum(rhs),rhsMax =  -5.72505579841840E-03  2.04433569242727E-01
 cg2d: Sum(rhs),rhsMax =  -5.72578493662812E-03  2.04441463595659E-01
 cg2d: Sum(rhs),rhsMax =  -5.72651276477102E-03  2.04449356818104E-01
 cg2d: Sum(rhs),rhsMax =  -5.72723927399062E-03  2.04457248907627E-01
 cg2d: Sum(rhs),rhsMax =  -5.72796445530884E-03  2.04465139861811E-01
 cg2d: Sum(rhs),rhsMax =  -5.72868830019123E-03  2.04473029678231E-01
 cg2d: Sum(rhs),rhsMax =  -5.72941079974244E-03  2.04480918354467E-01
 cg2d: Sum(rhs),rhsMax =  -5.73013194520175E-03  2.04488805888097E-01
 cg2d: Sum(rhs),rhsMax =  -5.73085172738493E-03  2.04496692276697E-01
 cg2d: Sum(rhs),rhsMax =  -5.73157013808535E-03  2.04504577517852E-01
 cg2d: Sum(rhs),rhsMax =  -5.73228716767963E-03  2.04512461609134E-01
 cg2d: Sum(rhs),rhsMax =  -5.73300280677533E-03  2.04520344548121E-01
 cg2d: Sum(rhs),rhsMax =  -5.73371704734840E-03  2.04528226332400E-01
 cg2d: Sum(rhs),rhsMax =  -5.73442987939513E-03  2.04536106959542E-01
 cg2d: Sum(rhs),rhsMax =  -5.73514129398136E-03  2.04543986427125E-01
 cg2d: Sum(rhs),rhsMax =  -5.73585128160044E-03  2.04551864732738E-01
 cg2d: Sum(rhs),rhsMax =  -5.73655983315716E-03  2.04559741873954E-01
 cg2d: Sum(rhs),rhsMax =  -5.73726693886882E-03  2.04567617848354E-01
 cg2d: Sum(rhs),rhsMax =  -5.73797258981505E-03  2.04575492653514E-01
 cg2d: Sum(rhs),rhsMax =  -5.73867677607640E-03  2.04583366287020E-01
 cg2d: Sum(rhs),rhsMax =  -5.73937948891120E-03  2.04591238746449E-01
 cg2d: Sum(rhs),rhsMax =  -5.74008071777355E-03  2.04599110029380E-01
 cg2d: Sum(rhs),rhsMax =  -5.74078045384104E-03  2.04606980133400E-01
 cg2d: Sum(rhs),rhsMax =  -5.74147868652755E-03  2.04614849056086E-01
 cg2d: Sum(rhs),rhsMax =  -5.74217540657742E-03  2.04622716795016E-01
 cg2d: Sum(rhs),rhsMax =  -5.74287060430773E-03  2.04630583347773E-01
 cg2d: Sum(rhs),rhsMax =  -5.74356426949963E-03  2.04638448711939E-01
 cg2d: Sum(rhs),rhsMax =  -5.74425639261890E-03  2.04646312885095E-01
 cg2d: Sum(rhs),rhsMax =  -5.74494696399310E-03  2.04654175864821E-01
 cg2d: Sum(rhs),rhsMax =  -5.74563597293951E-03  2.04662037648697E-01
 cg2d: Sum(rhs),rhsMax =  -5.74632340966709E-03  2.04669898234313E-01
 cg2d: Sum(rhs),rhsMax =  -5.74700926408842E-03  2.04677757619245E-01
 cg2d: Sum(rhs),rhsMax =  -5.74769352624761E-03  2.04685615801077E-01
 cg2d: Sum(rhs),rhsMax =  -5.74837618541197E-03  2.04693472777389E-01
 cg2d: Sum(rhs),rhsMax =  -5.74905723220821E-03  2.04701328545765E-01
 cg2d: Sum(rhs),rhsMax =  -5.74973665560713E-03  2.04709183103792E-01
 cg2d: Sum(rhs),rhsMax =  -5.75041444556187E-03  2.04717036449045E-01
 cg2d: Sum(rhs),rhsMax =  -5.75109059194787E-03  2.04724888579111E-01
 cg2d: Sum(rhs),rhsMax =  -5.75176508388498E-03  2.04732739491574E-01
 cg2d: Sum(rhs),rhsMax =  -5.75243791082096E-03  2.04740589184021E-01
 cg2d: Sum(rhs),rhsMax =  -5.75310906262656E-03  2.04748437654028E-01
 cg2d: Sum(rhs),rhsMax =  -5.75377852844997E-03  2.04756284899182E-01
 cg2d: Sum(rhs),rhsMax =  -5.75444629813609E-03  2.04764130917067E-01
 cg2d: Sum(rhs),rhsMax =  -5.75511236032820E-03  2.04771975705271E-01
 cg2d: Sum(rhs),rhsMax =  -5.75577670475028E-03  2.04779819261371E-01
 cg2d: Sum(rhs),rhsMax =  -5.75643932072635E-03  2.04787661582959E-01
 cg2d: Sum(rhs),rhsMax =  -5.75710019727627E-03  2.04795502667616E-01
 cg2d: Sum(rhs),rhsMax =  -5.75775932375076E-03  2.04803342512927E-01
 cg2d: Sum(rhs),rhsMax =  -5.75841668913791E-03  2.04811181116475E-01
 cg2d: Sum(rhs),rhsMax =  -5.75907228290500E-03  2.04819018475854E-01
 cg2d: Sum(rhs),rhsMax =  -5.75972609352116E-03  2.04826854588640E-01
 cg2d: Sum(rhs),rhsMax =  -5.76037811042516E-03  2.04834689452423E-01
 cg2d: Sum(rhs),rhsMax =  -5.76102832283512E-03  2.04842523064788E-01
 cg2d: Sum(rhs),rhsMax =  -5.76167671908037E-03  2.04850355423327E-01
 cg2d: Sum(rhs),rhsMax =  -5.76232328848112E-03  2.04858186525609E-01
 cg2d: Sum(rhs),rhsMax =  -5.76296801977336E-03  2.04866016369242E-01
 cg2d: Sum(rhs),rhsMax =  -5.76361090215994E-03  2.04873844951798E-01
 cg2d: Sum(rhs),rhsMax =  -5.76425192392131E-03  2.04881672270873E-01
 cg2d: Sum(rhs),rhsMax =  -5.76489107390723E-03  2.04889498324054E-01
 cg2d: Sum(rhs),rhsMax =  -5.76552834117064E-03  2.04897323108921E-01
 cg2d: Sum(rhs),rhsMax =  -5.76616371434237E-03  2.04905146623062E-01
 cg2d: Sum(rhs),rhsMax =  -5.76679718222932E-03  2.04912968864070E-01
 cg2d: Sum(rhs),rhsMax =  -5.76742873344245E-03  2.04920789829531E-01
(PID.TID 0000.0001)      cg2d_init_res =   5.06803930665518E-04
(PID.TID 0000.0001)      cg2d_iters(min,last) =      -1      71
(PID.TID 0000.0001)      cg2d_last_res =   9.23002363396740E-08
(PID.TID 0000.0001) // =======================================================
(PID.TID 0000.0001) // Begin MONITOR dynamic field statistics
(PID.TID 0000.0001) // =======================================================
(PID.TID 0000.0001) %MON time_tsnumber                =                 14112
(PID.TID 0000.0001) %MON time_secondsf                =   1.6934400000000E+07
(PID.TID 0000.0001) %MON dynstat_eta_max              =   3.0802859166499E-01
(PID.TID 0000.0001) %MON dynstat_eta_min              =  -1.0204687003442E-01
(PID.TID 0000.0001) %MON dynstat_eta_mean             =   5.9071724924743E-06
(PID.TID 0000.0001) %MON dynstat_eta_sd               =   1.2082230923672E-01
(PID.TID 0000.0001) %MON dynstat_eta_del2             =   3.1832230697604E-05
(PID.TID 0000.0001) %MON dynstat_uvel_max             =   1.5475169892022E-01
(PID.TID 0000.0001) %MON dynstat_uvel_min             =  -1.1645011760803E-01
(PID.TID 0000.0001) %MON dynstat_uvel_mean            =  -1.1609810511068E-08
(PID.TID 0000.0001) %MON dynstat_uvel_sd              =   4.9519853722640E-02
(PID.TID 0000.0001) %MON dynstat_uvel_del2            =   7.1503906764057E-05
(PID.TID 0000.0001) %MON dynstat_vvel_max             =   9.8174539810111E-02
(PID.TID 0000.0001) %MON dynstat_vvel_min             =  -1.2749964009332E-01
(PID.TID 0000.0001) %MON dynstat_vvel_mean            =   1.2349222770732E-07
(PID.TID 0000.0001) %MON dynstat_vvel_sd              =   4.5164648958810E-02
(PID.TID 0000.0001) %MON dynstat_vvel_del2            =   3.9836309557871E-05
(PID.TID 0000.0001) %MON dynstat_wvel_max             =   1.3798040016945E-08
(PID.TID 0000.0001) %MON dynstat_wvel_min             =  -5.5320740933530E-09
(PID.TID 0000.0001) %MON dynstat_wvel_mean            =  -3.5397796535916E-21
(PID.TID 0000.0001) %MON dynstat_wvel_sd              =   4.8762923598698E-09
(PID.TID 0000.0001) %MON dynstat_wvel_del2            =   1.6849340892365E-12
(PID.TID 0000.0001) %MON dynstat_theta_max            =   2.0000000000000E+01
(PID.TID 0000.0001) %MON dynstat_theta_min            =   2.0000000000000E+01
(PID.TID 0000.0001) %MON dynstat_theta_mean           =   2.0000000000000E+01
(PID.TID 0000.0001) %MON dynstat_theta_sd             =   3.8014036363165E-13
(PID.TID 0000.0001) %MON dynstat_theta_del2           =   0.0000000000000E+00
(PID.TID 0000.0001) %MON dynstat_salt_max             =   3.0000000000000E+01
(PID.TID 0000.0001) %MON dynstat_salt_min             =   3.0000000000000E+01
(PID.TID 0000.0001) %MON dynstat_salt_mean            =   2.9999999999999E+01
(PID.TID 0000.0001) %MON dynstat_salt_sd              =   5.5777604757167E-13
(PID.TID 0000.0001) %MON dynstat_salt_del2            =   0.0000000000000E+00
(PID.TID 0000.0001) %MON trAdv_CFL_u_max              =   9.2839897664587E-03
(PID.TID 0000.0001) %MON trAdv_CFL_v_max              =   7.6397816401460E-03
(PID.TID 0000.0001) %MON trAdv_CFL_w_max              =   3.6652172512385E-09
(PID.TID 0000.0001) %MON advcfl_uvel_max              =   9.2851019352133E-03
(PID.TID 0000.0001) %MON advcfl_vvel_max              =   7.6499784055995E-03
(PID.TID 0000.0001) %MON advcfl_wvel_max              =   6.6230592081338E-09
(PID.TID 0000.0001) %MON advcfl_W_hf_max              =   0.0000000000000E+00
(PID.TID 0000.0001) %MON pe_b_mean                    =   1.4966407247151E-05
(PID.TID 0000.0001) %MON ke_max                       =   1.1983739631990E-02
(PID.TID 0000.0001) %MON ke_mean                      =   2.2047293177041E-03
(PID.TID 0000.0001) %MON ke_vol                       =   6.8893493896486E+15
(PID.TID 0000.0001) %MON vort_r_min                   =  -9.9097725305845E-07
(PID.TID 0000.0001) %MON vort_r_max                   =   3.3381878051529E-06
(PID.TID 0000.0001) %MON vort_a_mean                  =   1.0600000000000E-04
(PID.TID 0000.0001) %MON vort_a_sd                    =   3.5666965641599E-06
(PID.TID 0000.0001) %MON vort_p_mean                  =   1.1652272308690E-04
(PID.TID 0000.0001) %MON vort_p_sd                    =   4.1788902722681E-05
(PID.TID 0000.0001) %MON surfExpan_theta_mean         =  -7.0801636158851E-20
(PID.TID 0000.0001) %MON surfExpan_salt_mean          =  -1.0620845437693E-19
(PID.TID 0000.0001) // =======================================================
(PID.TID 0000.0001) // End MONITOR dynamic field statistics
(PID.TID 0000.0001) // =======================================================
 cg2d: Sum(rhs),rhsMax =  -5.76805835686241E-03  2.04928609517037E-01
 cg2d: Sum(rhs),rhsMax =  -5.76868604059896E-03  2.04936427924171E-01
 cg2d: Sum(rhs),rhsMax =  -5.76931177360102E-03  2.04944245048521E-01
 cg2d: Sum(rhs),rhsMax =  -5.76993554437738E-03  2.04952060887679E-01
 cg2d: Sum(rhs),rhsMax =  -5.77055734154272E-03  2.04959875439234E-01
 cg2d: Sum(rhs),rhsMax =  -5.77117715366128E-03  2.04967688700777E-01
 cg2d: Sum(rhs),rhsMax =  -5.77179496941322E-03  2.04975500669892E-01
 cg2d: Sum(rhs),rhsMax =  -5.77241077712018E-03  2.04983311344173E-01
 cg2d: Sum(rhs),rhsMax =  -5.77302456585413E-03  2.04991120721208E-01
 cg2d: Sum(rhs),rhsMax =  -5.77363632320067E-03  2.04998928798586E-01
 cg2d: Sum(rhs),rhsMax =  -5.77424603860767E-03  2.05006735573906E-01
 cg2d: Sum(rhs),rhsMax =  -5.77485369953710E-03  2.05014541044748E-01
 cg2d: Sum(rhs),rhsMax =  -5.77545929534966E-03  2.05022345208704E-01
 cg2d: Sum(rhs),rhsMax =  -5.77606281426665E-03  2.05030148063371E-01
 cg2d: Sum(rhs),rhsMax =  -5.77666424508186E-03  2.05037949606337E-01
 cg2d: Sum(rhs),rhsMax =  -5.77726357550085E-03  2.05045749835192E-01
 cg2d: Sum(rhs),rhsMax =  -5.77786079467902E-03  2.05053548747532E-01
 cg2d: Sum(rhs),rhsMax =  -5.77845589099850E-03  2.05061346340946E-01
 cg2d: Sum(rhs),rhsMax =  -5.77904885292898E-03  2.05069142613027E-01
 cg2d: Sum(rhs),rhsMax =  -5.77963966894563E-03  2.05076937561367E-01
 cg2d: Sum(rhs),rhsMax =  -5.78022832749295E-03  2.05084731183557E-01
 cg2d: Sum(rhs),rhsMax =  -5.78081481738538E-03  2.05092523477199E-01
 cg2d: Sum(rhs),rhsMax =  -5.78139912713166E-03  2.05100314439870E-01
 cg2d: Sum(rhs),rhsMax =  -5.78198124526349E-03  2.05108104069177E-01
 cg2d: Sum(rhs),rhsMax =  -5.78256116039614E-03  2.05115892362708E-01
 cg2d: Sum(rhs),rhsMax =  -5.78313886110719E-03  2.05123679318060E-01
 cg2d: Sum(rhs),rhsMax =  -5.78371433575164E-03  2.05131464932827E-01
 cg2d: Sum(rhs),rhsMax =  -5.78428757357053E-03  2.05139249204600E-01
 cg2d: Sum(rhs),rhsMax =  -5.78485856300169E-03  2.05147032130973E-01
 cg2d: Sum(rhs),rhsMax =  -5.78542729298383E-03  2.05154813709548E-01
 cg2d: Sum(rhs),rhsMax =  -5.78599375232012E-03  2.05162593937915E-01
 cg2d: Sum(rhs),rhsMax =  -5.78655792948487E-03  2.05170372813666E-01
 cg2d: Sum(rhs),rhsMax =  -5.78711981380226E-03  2.05178150334406E-01
 cg2d: Sum(rhs),rhsMax =  -5.78767939431827E-03  2.05185926497725E-01
 cg2d: Sum(rhs),rhsMax =  -5.78823665937192E-03  2.05193701301218E-01
 cg2d: Sum(rhs),rhsMax =  -5.78879159829159E-03  2.05201474742486E-01
 cg2d: Sum(rhs),rhsMax =  -5.78934420060319E-03  2.05209246819123E-01
 cg2d: Sum(rhs),rhsMax =  -5.78989445527513E-03  2.05217017528728E-01
 cg2d: Sum(rhs),rhsMax =  -5.79044235102248E-03  2.05224786868894E-01
 cg2d: Sum(rhs),rhsMax =  -5.79098787758495E-03  2.05232554837222E-01
 cg2d: Sum(rhs),rhsMax =  -5.79153102420410E-03  2.05240321431310E-01
 cg2d: Sum(rhs),rhsMax =  -5.79207178047420E-03  2.05248086648759E-01
 cg2d: Sum(rhs),rhsMax =  -5.79261013598367E-03  2.05255850487161E-01
 cg2d: Sum(rhs),rhsMax =  -5.79314607968876E-03  2.05263612944118E-01
 cg2d: Sum(rhs),rhsMax =  -5.79367960235235E-03  2.05271374017228E-01
 cg2d: Sum(rhs),rhsMax =  -5.79421069292927E-03  2.05279133704088E-01
 cg2d: Sum(rhs),rhsMax =  -5.79473934164032E-03  2.05286892002308E-01
 cg2d: Sum(rhs),rhsMax =  -5.79526553780928E-03  2.05294648909472E-01
 cg2d: Sum(rhs),rhsMax =  -5.79578927261324E-03  2.05302404423193E-01
 cg2d: Sum(rhs),rhsMax =  -5.79631053540766E-03  2.05310158541065E-01
 cg2d: Sum(rhs),rhsMax =  -5.79682931683218E-03  2.05317911260693E-01
 cg2d: Sum(rhs),rhsMax =  -5.79734560739307E-03  2.05325662579674E-01
 cg2d: Sum(rhs),rhsMax =  -5.79785939735445E-03  2.05333412495612E-01
 cg2d: Sum(rhs),rhsMax =  -5.79837067754516E-03  2.05341161006106E-01
 cg2d: Sum(rhs),rhsMax =  -5.79887943878283E-03  2.05348908108758E-01
 cg2d: Sum(rhs),rhsMax =  -5.79938567172230E-03  2.05356653801175E-01
 cg2d: Sum(rhs),rhsMax =  -5.79988936795066E-03  2.05364398080951E-01
 cg2d: Sum(rhs),rhsMax =  -5.80039051806643E-03  2.05372140945696E-01
 cg2d: Sum(rhs),rhsMax =  -5.80088911375822E-03  2.05379882393009E-01
 cg2d: Sum(rhs),rhsMax =  -5.80138514642175E-03  2.05387622420499E-01
 cg2d: Sum(rhs),rhsMax =  -5.80187860786636E-03  2.05395361025764E-01
 cg2d: Sum(rhs),rhsMax =  -5.80236948958297E-03  2.05403098206408E-01
 cg2d: Sum(rhs),rhsMax =  -5.80285778451923E-03  2.05410833960042E-01
 cg2d: Sum(rhs),rhsMax =  -5.80334348330161E-03  2.05418568284264E-01
 cg2d: Sum(rhs),rhsMax =  -5.80382657969877E-03  2.05426301176676E-01
 cg2d: Sum(rhs),rhsMax =  -5.80430706531744E-03  2.05434032634898E-01
 cg2d: Sum(rhs),rhsMax =  -5.80478493354985E-03  2.05441762656515E-01
 cg2d: Sum(rhs),rhsMax =  -5.80526017678415E-03  2.05449491239150E-01
 cg2d: Sum(rhs),rhsMax =  -5.80573278874795E-03  2.05457218380402E-01
 cg2d: Sum(rhs),rhsMax =  -5.80620276196105E-03  2.05464944077878E-01
 cg2d: Sum(rhs),rhsMax =  -5.80667009064939E-03  2.05472668329184E-01
 cg2d: Sum(rhs),rhsMax =  -5.80713476778325E-03  2.05480391131933E-01
(PID.TID 0000.0001)      cg2d_init_res =   5.03497345968341E-04
(PID.TID 0000.0001)      cg2d_iters(min,last) =      -1      71
(PID.TID 0000.0001)      cg2d_last_res =   9.38074713226267E-08
(PID.TID 0000.0001) // =======================================================
(PID.TID 0000.0001) // Begin MONITOR dynamic field statistics
(PID.TID 0000.0001) // =======================================================
(PID.TID 0000.0001) %MON time_tsnumber                =                 14184
(PID.TID 0000.0001) %MON time_secondsf                =   1.7020800000000E+07
(PID.TID 0000.0001) %MON dynstat_eta_max              =   3.0919969133395E-01
(PID.TID 0000.0001) %MON dynstat_eta_min              =  -1.0225574985714E-01
(PID.TID 0000.0001) %MON dynstat_eta_mean             =   5.9639030255243E-06
(PID.TID 0000.0001) %MON dynstat_eta_sd               =   1.2122147840442E-01
(PID.TID 0000.0001) %MON dynstat_eta_del2             =   3.1924915108515E-05
(PID.TID 0000.0001) %MON dynstat_uvel_max             =   1.5520620402093E-01
(PID.TID 0000.0001) %MON dynstat_uvel_min             =  -1.1690012319758E-01
(PID.TID 0000.0001) %MON dynstat_uvel_mean            =  -1.2017723805312E-08
(PID.TID 0000.0001) %MON dynstat_uvel_sd              =   4.9674212775117E-02
(PID.TID 0000.0001) %MON dynstat_uvel_del2            =   7.1661774604696E-05
(PID.TID 0000.0001) %MON dynstat_vvel_max             =   9.8603900531011E-02
(PID.TID 0000.0001) %MON dynstat_vvel_min             =  -1.2778073756435E-01
(PID.TID 0000.0001) %MON dynstat_vvel_mean            =   1.2358679384628E-07
(PID.TID 0000.0001) %MON dynstat_vvel_sd              =   4.5324912208759E-02
(PID.TID 0000.0001) %MON dynstat_vvel_del2            =   3.9736128729024E-05
(PID.TID 0000.0001) %MON dynstat_wvel_max             =   1.3759507794939E-08
(PID.TID 0000.0001) %MON dynstat_wvel_min             =  -5.4902108502574E-09
(PID.TID 0000.0001) %MON dynstat_wvel_mean            =   5.0270528441211E-21
(PID.TID 0000.0001) %MON dynstat_wvel_sd              =   4.8596657375823E-09
(PID.TID 0000.0001) %MON dynstat_wvel_del2            =   1.6823825546237E-12
(PID.TID 0000.0001) %MON dynstat_theta_max            =   2.0000000000000E+01
(PID.TID 0000.0001) %MON dynstat_theta_min            =   2.0000000000000E+01
(PID.TID 0000.0001) %MON dynstat_theta_mean           =   2.0000000000000E+01
(PID.TID 0000.0001) %MON dynstat_theta_sd             =   3.8014036363165E-13
(PID.TID 0000.0001) %MON dynstat_theta_del2           =   0.0000000000000E+00
(PID.TID 0000.0001) %MON dynstat_salt_max             =   3.0000000000000E+01
(PID.TID 0000.0001) %MON dynstat_salt_min             =   3.0000000000000E+01
(PID.TID 0000.0001) %MON dynstat_salt_mean            =   2.9999999999999E+01
(PID.TID 0000.0001) %MON dynstat_salt_sd              =   5.5777604757167E-13
(PID.TID 0000.0001) %MON dynstat_salt_del2            =   0.0000000000000E+00
(PID.TID 0000.0001) %MON trAdv_CFL_u_max              =   9.3112574170412E-03
(PID.TID 0000.0001) %MON trAdv_CFL_v_max              =   7.6566277722762E-03
(PID.TID 0000.0001) %MON trAdv_CFL_w_max              =   3.6545358128050E-09
(PID.TID 0000.0001) %MON advcfl_uvel_max              =   9.3123722412558E-03
(PID.TID 0000.0001) %MON advcfl_vvel_max              =   7.6668442538611E-03
(PID.TID 0000.0001) %MON advcfl_wvel_max              =   6.6045637415707E-09
(PID.TID 0000.0001) %MON advcfl_W_hf_max              =   0.0000000000000E+00
(PID.TID 0000.0001) %MON pe_b_mean                    =   1.5065461750639E-05
(PID.TID 0000.0001) %MON ke_max                       =   1.2053585342105E-02
(PID.TID 0000.0001) %MON ke_mean                      =   2.2193620284300E-03
(PID.TID 0000.0001) %MON ke_vol                       =   6.8893493896486E+15
(PID.TID 0000.0001) %MON vort_r_min                   =  -9.9190286991896E-07
(PID.TID 0000.0001) %MON vort_r_max                   =   3.3477470144045E-06
(PID.TID 0000.0001) %MON vort_a_mean                  =   1.0600000000000E-04
(PID.TID 0000.0001) %MON vort_a_sd                    =   3.5669381668209E-06
(PID.TID 0000.0001) %MON vort_p_mean                  =   1.1652272308690E-04
(PID.TID 0000.0001) %MON vort_p_sd                    =   4.1788977185217E-05
(PID.TID 0000.0001) %MON surfExpan_theta_mean         =   1.0054842884225E-19
(PID.TID 0000.0001) %MON surfExpan_salt_mean          =   1.5082895919881E-19
(PID.TID 0000.0001) // =======================================================
(PID.TID 0000.0001) // End MONITOR dynamic field statistics
(PID.TID 0000.0001) // =======================================================
 cg2d: Sum(rhs),rhsMax =  -5.80759678786969E-03  2.05488112483722E-01
 cg2d: Sum(rhs),rhsMax =  -5.80805614506941E-03  2.05495832382175E-01
 cg2d: Sum(rhs),rhsMax =  -5.80851283432286E-03  2.05503550824879E-01
 cg2d: Sum(rhs),rhsMax =  -5.80896684914884E-03  2.05511267809463E-01
 cg2d: Sum(rhs),rhsMax =  -5.80941818557930E-03  2.05518983333522E-01
 cg2d: Sum(rhs),rhsMax =  -5.80986683798359E-03  2.05526697394674E-01
 cg2d: Sum(rhs),rhsMax =  -5.81031280212097E-03  2.05534409990521E-01
 cg2d: Sum(rhs),rhsMax =  -5.81075607352270E-03  2.05542121118681E-01
 cg2d: Sum(rhs),rhsMax =  -5.81119664815967E-03  2.05549830776756E-01
 cg2d: Sum(rhs),rhsMax =  -5.81163452286206E-03  2.05557538962362E-01
 cg2d: Sum(rhs),rhsMax =  -5.81206969332484E-03  2.05565245673112E-01
 cg2d: Sum(rhs),rhsMax =  -5.81250215663330E-03  2.05572950906611E-01
 cg2d: Sum(rhs),rhsMax =  -5.81293190990078E-03  2.05580654660479E-01
 cg2d: Sum(rhs),rhsMax =  -5.81335895032425E-03  2.05588356932318E-01
 cg2d: Sum(rhs),rhsMax =  -5.81378327565703E-03  2.05596057719750E-01
 cg2d: Sum(rhs),rhsMax =  -5.81420488444538E-03  2.05603757020383E-01
 cg2d: Sum(rhs),rhsMax =  -5.81462377378344E-03  2.05611454831831E-01
 cg2d: Sum(rhs),rhsMax =  -5.81503994366935E-03  2.05619151151704E-01
 cg2d: Sum(rhs),rhsMax =  -5.81545339210278E-03  2.05626845977624E-01
 cg2d: Sum(rhs),rhsMax =  -5.81586411870266E-03  2.05634539307196E-01
 cg2d: Sum(rhs),rhsMax =  -5.81627212313023E-03  2.05642231138044E-01
 cg2d: Sum(rhs),rhsMax =  -5.81667740546522E-03  2.05649921467778E-01
 cg2d: Sum(rhs),rhsMax =  -5.81707996573621E-03  2.05657610294012E-01
 cg2d: Sum(rhs),rhsMax =  -5.81747980446241E-03  2.05665297614365E-01
 cg2d: Sum(rhs),rhsMax =  -5.81787692363171E-03  2.05672983426454E-01
 cg2d: Sum(rhs),rhsMax =  -5.81827132340816E-03  2.05680667727895E-01
 cg2d: Sum(rhs),rhsMax =  -5.81866300630409E-03  2.05688350516301E-01
 cg2d: Sum(rhs),rhsMax =  -5.81905197428466E-03  2.05696031789294E-01
 cg2d: Sum(rhs),rhsMax =  -5.81943823013113E-03  2.05703711544491E-01
 cg2d: Sum(rhs),rhsMax =  -5.81982177658766E-03  2.05711389779508E-01
 cg2d: Sum(rhs),rhsMax =  -5.82020261706054E-03  2.05719066491968E-01
 cg2d: Sum(rhs),rhsMax =  -5.82058075559959E-03  2.05726741679485E-01
 cg2d: Sum(rhs),rhsMax =  -5.82095619533616E-03  2.05734415339682E-01
 cg2d: Sum(rhs),rhsMax =  -5.82132894203072E-03  2.05742087470176E-01
 cg2d: Sum(rhs),rhsMax =  -5.82169899966218E-03  2.05749758068590E-01
 cg2d: Sum(rhs),rhsMax =  -5.82206637427955E-03  2.05757427132543E-01
 cg2d: Sum(rhs),rhsMax =  -5.82243107131165E-03  2.05765094659657E-01
 cg2d: Sum(rhs),rhsMax =  -5.82279309744445E-03  2.05772760647553E-01
 cg2d: Sum(rhs),rhsMax =  -5.82315245893895E-03  2.05780425093852E-01
 cg2d: Sum(rhs),rhsMax =  -5.82350916290483E-03  2.05788087996181E-01
 cg2d: Sum(rhs),rhsMax =  -5.82386321766512E-03  2.05795749352158E-01
 cg2d: Sum(rhs),rhsMax =  -5.82421463054130E-03  2.05803409159406E-01
 cg2d: Sum(rhs),rhsMax =  -5.82456341011318E-03  2.05811067415551E-01
 cg2d: Sum(rhs),rhsMax =  -5.82490956553904E-03  2.05818724118215E-01
 cg2d: Sum(rhs),rhsMax =  -5.82525310583028E-03  2.05826379265028E-01
 cg2d: Sum(rhs),rhsMax =  -5.82559404089683E-03  2.05834032853608E-01
 cg2d: Sum(rhs),rhsMax =  -5.82593238128761E-03  2.05841684881583E-01
 cg2d: Sum(rhs),rhsMax =  -5.82626813806287E-03  2.05849335346579E-01
 cg2d: Sum(rhs),rhsMax =  -5.82660132255162E-03  2.05856984246225E-01
 cg2d: Sum(rhs),rhsMax =  -5.82693194550665E-03  2.05864631578143E-01
 cg2d: Sum(rhs),rhsMax =  -5.82726002020221E-03  2.05872277339966E-01
 cg2d: Sum(rhs),rhsMax =  -5.82758555929221E-03  2.05879921529313E-01
 cg2d: Sum(rhs),rhsMax =  -5.82790857527823E-03  2.05887564143820E-01
 cg2d: Sum(rhs),rhsMax =  -5.82822908216673E-03  2.05895205181115E-01
 cg2d: Sum(rhs),rhsMax =  -5.82854709456868E-03  2.05902844638822E-01
 cg2d: Sum(rhs),rhsMax =  -5.82886262694232E-03  2.05910482514576E-01
 cg2d: Sum(rhs),rhsMax =  -5.82917569441630E-03  2.05918118806001E-01
 cg2d: Sum(rhs),rhsMax =  -5.82948631304277E-03  2.05925753510737E-01
 cg2d: Sum(rhs),rhsMax =  -5.82979449857676E-03  2.05933386626405E-01
 cg2d: Sum(rhs),rhsMax =  -5.83010026700126E-03  2.05941018150642E-01
 cg2d: Sum(rhs),rhsMax =  -5.83040363679153E-03  2.05948648081076E-01
 cg2d: Sum(rhs),rhsMax =  -5.83070462480432E-03  2.05956276415351E-01
 cg2d: Sum(rhs),rhsMax =  -5.83100324964360E-03  2.05963903151081E-01
 cg2d: Sum(rhs),rhsMax =  -5.83129952947411E-03  2.05971528285916E-01
 cg2d: Sum(rhs),rhsMax =  -5.83159348381457E-03  2.05979151817476E-01
 cg2d: Sum(rhs),rhsMax =  -5.83188513233037E-03  2.05986773743411E-01
 cg2d: Sum(rhs),rhsMax =  -5.83217449547811E-03  2.05994394061341E-01
 cg2d: Sum(rhs),rhsMax =  -5.83246159340127E-03  2.06002012768917E-01
 cg2d: Sum(rhs),rhsMax =  -5.83274644715711E-03  2.06009629863761E-01
 cg2d: Sum(rhs),rhsMax =  -5.83302907891292E-03  2.06017245343513E-01
 cg2d: Sum(rhs),rhsMax =  -5.83330951035543E-03  2.06024859205817E-01
 cg2d: Sum(rhs),rhsMax =  -5.83358776428737E-03  2.06032471448303E-01
(PID.TID 0000.0001)      cg2d_init_res =   4.99610353182052E-04
(PID.TID 0000.0001)      cg2d_iters(min,last) =      -1      71
(PID.TID 0000.0001)      cg2d_last_res =   9.58960904455339E-08
(PID.TID 0000.0001) // =======================================================
(PID.TID 0000.0001) // Begin MONITOR dynamic field statistics
(PID.TID 0000.0001) // =======================================================
(PID.TID 0000.0001) %MON time_tsnumber                =                 14256
(PID.TID 0000.0001) %MON time_secondsf                =   1.7107200000000E+07
(PID.TID 0000.0001) %MON dynstat_eta_max              =   3.1036889373060E-01
(PID.TID 0000.0001) %MON dynstat_eta_min              =  -1.0245902238518E-01
(PID.TID 0000.0001) %MON dynstat_eta_mean             =   6.0069693835256E-06
(PID.TID 0000.0001) %MON dynstat_eta_sd               =   1.2161941855689E-01
(PID.TID 0000.0001) %MON dynstat_eta_del2             =   3.2017253635817E-05
(PID.TID 0000.0001) %MON dynstat_uvel_max             =   1.5566095620186E-01
(PID.TID 0000.0001) %MON dynstat_uvel_min             =  -1.1734619443167E-01
(PID.TID 0000.0001) %MON dynstat_uvel_mean            =  -1.2158912095485E-08
(PID.TID 0000.0001) %MON dynstat_uvel_sd              =   4.9828378710262E-02
(PID.TID 0000.0001) %MON dynstat_uvel_del2            =   7.1819682340172E-05
(PID.TID 0000.0001) %MON dynstat_vvel_max             =   9.9040561366410E-02
(PID.TID 0000.0001) %MON dynstat_vvel_min             =  -1.2806029001128E-01
(PID.TID 0000.0001) %MON dynstat_vvel_mean            =   1.2416075024803E-07
(PID.TID 0000.0001) %MON dynstat_vvel_sd              =   4.5483949534541E-02
(PID.TID 0000.0001) %MON dynstat_vvel_del2            =   3.9629686431190E-05
(PID.TID 0000.0001) %MON dynstat_wvel_max             =   1.3722587277862E-08
(PID.TID 0000.0001) %MON dynstat_wvel_min             =  -5.5985908291768E-09
(PID.TID 0000.0001) %MON dynstat_wvel_mean            =  -1.9641343998147E-21
(PID.TID 0000.0001) %MON dynstat_wvel_sd              =   4.8468990644380E-09
(PID.TID 0000.0001) %MON dynstat_wvel_del2            =   1.6775447840113E-12
(PID.TID 0000.0001) %MON dynstat_theta_max            =   2.0000000000000E+01
(PID.TID 0000.0001) %MON dynstat_theta_min            =   2.0000000000000E+01
(PID.TID 0000.0001) %MON dynstat_theta_mean           =   2.0000000000000E+01
(PID.TID 0000.0001) %MON dynstat_theta_sd             =   3.8014036363165E-13
(PID.TID 0000.0001) %MON dynstat_theta_del2           =   0.0000000000000E+00
(PID.TID 0000.0001) %MON dynstat_salt_max             =   3.0000000000000E+01
(PID.TID 0000.0001) %MON dynstat_salt_min             =   3.0000000000000E+01
(PID.TID 0000.0001) %MON dynstat_salt_mean            =   2.9999999999999E+01
(PID.TID 0000.0001) %MON dynstat_salt_sd              =   5.5777604757167E-13
(PID.TID 0000.0001) %MON dynstat_salt_del2            =   0.0000000000000E+00
(PID.TID 0000.0001) %MON trAdv_CFL_u_max              =   9.3385404769439E-03
(PID.TID 0000.0001) %MON trAdv_CFL_v_max              =   7.6733794198449E-03
(PID.TID 0000.0001) %MON trAdv_CFL_w_max              =   3.6432211109381E-09
(PID.TID 0000.0001) %MON advcfl_uvel_max              =   9.3396573721113E-03
(PID.TID 0000.0001) %MON advcfl_vvel_max              =   7.6836174006767E-03
(PID.TID 0000.0001) %MON advcfl_wvel_max              =   6.5868418933736E-09
(PID.TID 0000.0001) %MON advcfl_W_hf_max              =   0.0000000000000E+00
(PID.TID 0000.0001) %MON pe_b_mean                    =   1.5164536478055E-05
(PID.TID 0000.0001) %MON ke_max                       =   1.2123654250380E-02
(PID.TID 0000.0001) %MON ke_mean                      =   2.2339791586861E-03
(PID.TID 0000.0001) %MON ke_vol                       =   6.8893493896486E+15
(PID.TID 0000.0001) %MON vort_r_min                   =  -9.9294010290488E-07
(PID.TID 0000.0001) %MON vort_r_max                   =   3.3572759198914E-06
(PID.TID 0000.0001) %MON vort_a_mean                  =   1.0600000000000E-04
(PID.TID 0000.0001) %MON vort_a_sd                    =   3.5671774704670E-06
(PID.TID 0000.0001) %MON vort_p_mean                  =   1.1652272308690E-04
(PID.TID 0000.0001) %MON vort_p_sd                    =   4.1789054155351E-05
(PID.TID 0000.0001) %MON surfExpan_theta_mean         =  -3.9280697213447E-20
(PID.TID 0000.0001) %MON surfExpan_salt_mean          =  -5.8919466836313E-20
(PID.TID 0000.0001) // =======================================================
(PID.TID 0000.0001) // End MONITOR dynamic field statistics
(PID.TID 0000.0001) // =======================================================
 cg2d: Sum(rhs),rhsMax =  -5.83386386426013E-03  2.06040082068609E-01
 cg2d: Sum(rhs),rhsMax =  -5.83413783295319E-03  2.06047691064379E-01
 cg2d: Sum(rhs),rhsMax =  -5.83440969505030E-03  2.06055298433248E-01
 cg2d: Sum(rhs),rhsMax =  -5.83467947519992E-03  2.06062904172854E-01
 cg2d: Sum(rhs),rhsMax =  -5.83494719806606E-03  2.06070508280845E-01
 cg2d: Sum(rhs),rhsMax =  -5.83521288867532E-03  2.06078110754854E-01
 cg2d: Sum(rhs),rhsMax =  -5.83547657422353E-03  2.06085711592523E-01
 cg2d: Sum(rhs),rhsMax =  -5.83573827987897E-03  2.06093310791499E-01
 cg2d: Sum(rhs),rhsMax =  -5.83599803333502E-03  2.06100908349421E-01
 cg2d: Sum(rhs),rhsMax =  -5.83625586159343E-03  2.06108504263933E-01
 cg2d: Sum(rhs),rhsMax =  -5.83651179220705E-03  2.06116098532680E-01
 cg2d: Sum(rhs),rhsMax =  -5.83676585379207E-03  2.06123691153297E-01
 cg2d: Sum(rhs),rhsMax =  -5.83701807471500E-03  2.06131282123442E-01
 cg2d: Sum(rhs),rhsMax =  -5.83726848377460E-03  2.06138871440750E-01
 cg2d: Sum(rhs),rhsMax =  -5.83751711087345E-03  2.06146459102873E-01
 cg2d: Sum(rhs),rhsMax =  -5.83776398582590E-03  2.06154045107457E-01
 cg2d: Sum(rhs),rhsMax =  -5.83800913846917E-03  2.06161629452147E-01
 cg2d: Sum(rhs),rhsMax =  -5.83825259980961E-03  2.06169212134586E-01
 cg2d: Sum(rhs),rhsMax =  -5.83849440080902E-03  2.06176793152430E-01
 cg2d: Sum(rhs),rhsMax =  -5.83873457296144E-03  2.06184372503326E-01
 cg2d: Sum(rhs),rhsMax =  -5.83897314833001E-03  2.06191950184923E-01
 cg2d: Sum(rhs),rhsMax =  -5.83921015825094E-03  2.06199526194867E-01
 cg2d: Sum(rhs),rhsMax =  -5.83944563618410E-03  2.06207100530817E-01
 cg2d: Sum(rhs),rhsMax =  -5.83967961421646E-03  2.06214673190415E-01
 cg2d: Sum(rhs),rhsMax =  -5.83991212630626E-03  2.06222244171323E-01
 cg2d: Sum(rhs),rhsMax =  -5.84014320552720E-03  2.06229813471179E-01
 cg2d: Sum(rhs),rhsMax =  -5.84037288580158E-03  2.06237381087652E-01
 cg2d: Sum(rhs),rhsMax =  -5.84060120136960E-03  2.06244947018390E-01
 cg2d: Sum(rhs),rhsMax =  -5.84082818657329E-03  2.06252511261043E-01
 cg2d: Sum(rhs),rhsMax =  -5.84105387599693E-03  2.06260073813266E-01
 cg2d: Sum(rhs),rhsMax =  -5.84127830495453E-03  2.06267634672724E-01
 cg2d: Sum(rhs),rhsMax =  -5.84150150818562E-03  2.06275193837065E-01
 cg2d: Sum(rhs),rhsMax =  -5.84172352151767E-03  2.06282751303949E-01
 cg2d: Sum(rhs),rhsMax =  -5.84194438098611E-03  2.06290307071032E-01
 cg2d: Sum(rhs),rhsMax =  -5.84216412194710E-03  2.06297861135977E-01
 cg2d: Sum(rhs),rhsMax =  -5.84238278138291E-03  2.06305413496435E-01
 cg2d: Sum(rhs),rhsMax =  -5.84260039465500E-03  2.06312964150074E-01
 cg2d: Sum(rhs),rhsMax =  -5.84281699896436E-03  2.06320513094553E-01
 cg2d: Sum(rhs),rhsMax =  -5.84303263116736E-03  2.06328060327526E-01
 cg2d: Sum(rhs),rhsMax =  -5.84324732775220E-03  2.06335605846663E-01
 cg2d: Sum(rhs),rhsMax =  -5.84346112623255E-03  2.06343149649624E-01
 cg2d: Sum(rhs),rhsMax =  -5.84367406361499E-03  2.06350691734074E-01
 cg2d: Sum(rhs),rhsMax =  -5.84388617747341E-03  2.06358232097673E-01
 cg2d: Sum(rhs),rhsMax =  -5.84409750524344E-03  2.06365770738084E-01
 cg2d: Sum(rhs),rhsMax =  -5.84430808455687E-03  2.06373307652980E-01
 cg2d: Sum(rhs),rhsMax =  -5.84451795278740E-03  2.06380842840023E-01
 cg2d: Sum(rhs),rhsMax =  -5.84472714755144E-03  2.06388376296880E-01
 cg2d: Sum(rhs),rhsMax =  -5.84493570740751E-03  2.06395908021218E-01
 cg2d: Sum(rhs),rhsMax =  -5.84514366950378E-03  2.06403438010707E-01
 cg2d: Sum(rhs),rhsMax =  -5.84535107191833E-03  2.06410966263015E-01
 cg2d: Sum(rhs),rhsMax =  -5.84555795277540E-03  2.06418492775809E-01
 cg2d: Sum(rhs),rhsMax =  -5.84576435018723E-03  2.06426017546768E-01
 cg2d: Sum(rhs),rhsMax =  -5.84597030171379E-03  2.06433540573555E-01
 cg2d: Sum(rhs),rhsMax =  -5.84617584545067E-03  2.06441061853842E-01
 cg2d: Sum(rhs),rhsMax =  -5.84638101903016E-03  2.06448581385315E-01
 cg2d: Sum(rhs),rhsMax =  -5.84658586024004E-03  2.06456099165627E-01
 cg2d: Sum(rhs),rhsMax =  -5.84679040758223E-03  2.06463615192471E-01
 cg2d: Sum(rhs),rhsMax =  -5.84699469865866E-03  2.06471129463513E-01
 cg2d: Sum(rhs),rhsMax =  -5.84719877083638E-03  2.06478641976427E-01
 cg2d: Sum(rhs),rhsMax =  -5.84740266172408E-03  2.06486152728894E-01
 cg2d: Sum(rhs),rhsMax =  -5.84760640881855E-03  2.06493661718593E-01
 cg2d: Sum(rhs),rhsMax =  -5.84781004969494E-03  2.06501168943206E-01
 cg2d: Sum(rhs),rhsMax =  -5.84801362149445E-03  2.06508674400400E-01
 cg2d: Sum(rhs),rhsMax =  -5.84821716149329E-03  2.06516178087867E-01
 cg2d: Sum(rhs),rhsMax =  -5.84842070625625E-03  2.06523680003281E-01
 cg2d: Sum(rhs),rhsMax =  -5.84862429301150E-03  2.06531180144327E-01
 cg2d: Sum(rhs),rhsMax =  -5.84882795838945E-03  2.06538678508683E-01
 cg2d: Sum(rhs),rhsMax =  -5.84903173834092E-03  2.06546175094044E-01
 cg2d: Sum(rhs),rhsMax =  -5.84923566966725E-03  2.06553669898082E-01
 cg2d: Sum(rhs),rhsMax =  -5.84943978806598E-03  2.06561162918488E-01
 cg2d: Sum(rhs),rhsMax =  -5.84964412900002E-03  2.06568654152947E-01
 cg2d: Sum(rhs),rhsMax =  -5.84984872903910E-03  2.06576143599146E-01
(PID.TID 0000.0001)      cg2d_init_res =   4.95233933414370E-04
(PID.TID 0000.0001)      cg2d_iters(min,last) =      -1      71
(PID.TID 0000.0001)      cg2d_last_res =   9.60343033921857E-08
(PID.TID 0000.0001) // =======================================================
(PID.TID 0000.0001) // Begin MONITOR dynamic field statistics
(PID.TID 0000.0001) // =======================================================
(PID.TID 0000.0001) %MON time_tsnumber                =                 14328
(PID.TID 0000.0001) %MON time_secondsf                =   1.7193600000000E+07
(PID.TID 0000.0001) %MON dynstat_eta_max              =   3.1153661749146E-01
(PID.TID 0000.0001) %MON dynstat_eta_min              =  -1.0265713062373E-01
(PID.TID 0000.0001) %MON dynstat_eta_mean             =   6.0395303464079E-06
(PID.TID 0000.0001) %MON dynstat_eta_sd               =   1.2201632944423E-01
(PID.TID 0000.0001) %MON dynstat_eta_del2             =   3.2109111987591E-05
(PID.TID 0000.0001) %MON dynstat_uvel_max             =   1.5611523584168E-01
(PID.TID 0000.0001) %MON dynstat_uvel_min             =  -1.1779010771316E-01
(PID.TID 0000.0001) %MON dynstat_uvel_mean            =  -1.1832465421516E-08
(PID.TID 0000.0001) %MON dynstat_uvel_sd              =   4.9982795796900E-02
(PID.TID 0000.0001) %MON dynstat_uvel_del2            =   7.1977085693412E-05
(PID.TID 0000.0001) %MON dynstat_vvel_max             =   9.9484716209763E-02
(PID.TID 0000.0001) %MON dynstat_vvel_min             =  -1.2834061283321E-01
(PID.TID 0000.0001) %MON dynstat_vvel_mean            =   1.2513160465967E-07
(PID.TID 0000.0001) %MON dynstat_vvel_sd              =   4.5641307169756E-02
(PID.TID 0000.0001) %MON dynstat_vvel_del2            =   3.9517611568281E-05
(PID.TID 0000.0001) %MON dynstat_wvel_max             =   1.3687483749545E-08
(PID.TID 0000.0001) %MON dynstat_wvel_min             =  -5.6937292963266E-09
(PID.TID 0000.0001) %MON dynstat_wvel_mean            =  -1.7462110943395E-20
(PID.TID 0000.0001) %MON dynstat_wvel_sd              =   4.8377010504695E-09
(PID.TID 0000.0001) %MON dynstat_wvel_del2            =   1.6697969855259E-12
(PID.TID 0000.0001) %MON dynstat_theta_max            =   2.0000000000000E+01
(PID.TID 0000.0001) %MON dynstat_theta_min            =   2.0000000000000E+01
(PID.TID 0000.0001) %MON dynstat_theta_mean           =   2.0000000000000E+01
(PID.TID 0000.0001) %MON dynstat_theta_sd             =   3.8014036363165E-13
(PID.TID 0000.0001) %MON dynstat_theta_del2           =   0.0000000000000E+00
(PID.TID 0000.0001) %MON dynstat_salt_max             =   3.0000000000000E+01
(PID.TID 0000.0001) %MON dynstat_salt_min             =   3.0000000000000E+01
(PID.TID 0000.0001) %MON dynstat_salt_mean            =   2.9999999999999E+01
(PID.TID 0000.0001) %MON dynstat_salt_sd              =   5.5777604757167E-13
(PID.TID 0000.0001) %MON dynstat_salt_del2            =   0.0000000000000E+00
(PID.TID 0000.0001) %MON trAdv_CFL_u_max              =   9.3657957995401E-03
(PID.TID 0000.0001) %MON trAdv_CFL_v_max              =   7.6901752873703E-03
(PID.TID 0000.0001) %MON trAdv_CFL_w_max              =   3.6316167291056E-09
(PID.TID 0000.0001) %MON advcfl_uvel_max              =   9.3669141505006E-03
(PID.TID 0000.0001) %MON advcfl_vvel_max              =   7.7004367699925E-03
(PID.TID 0000.0001) %MON advcfl_wvel_max              =   6.5699921997817E-09
(PID.TID 0000.0001) %MON advcfl_W_hf_max              =   0.0000000000000E+00
(PID.TID 0000.0001) %MON pe_b_mean                    =   1.5263678396523E-05
(PID.TID 0000.0001) %MON ke_max                       =   1.2193831584974E-02
(PID.TID 0000.0001) %MON ke_mean                      =   2.2485815142628E-03
(PID.TID 0000.0001) %MON ke_vol                       =   6.8893493896486E+15
(PID.TID 0000.0001) %MON vort_r_min                   =  -9.9404166634000E-07
(PID.TID 0000.0001) %MON vort_r_max                   =   3.3667599806128E-06
(PID.TID 0000.0001) %MON vort_a_mean                  =   1.0600000000000E-04
(PID.TID 0000.0001) %MON vort_a_sd                    =   3.5674142336919E-06
(PID.TID 0000.0001) %MON vort_p_mean                  =   1.1652272308690E-04
(PID.TID 0000.0001) %MON vort_p_sd                    =   4.1789133763298E-05
(PID.TID 0000.0001) %MON surfExpan_theta_mean         =  -3.4922291231649E-19
(PID.TID 0000.0001) %MON surfExpan_salt_mean          =  -5.2382552616513E-19
(PID.TID 0000.0001) // =======================================================
(PID.TID 0000.0001) // End MONITOR dynamic field statistics
(PID.TID 0000.0001) // =======================================================
 cg2d: Sum(rhs),rhsMax =  -5.85005362313309E-03  2.06583631254776E-01
 cg2d: Sum(rhs),rhsMax =  -5.85025884594847E-03  2.06591117117517E-01
 cg2d: Sum(rhs),rhsMax =  -5.85046443244139E-03  2.06598601185066E-01
 cg2d: Sum(rhs),rhsMax =  -5.85067041765946E-03  2.06606083455115E-01
 cg2d: Sum(rhs),rhsMax =  -5.85087683496871E-03  2.06613563925349E-01
 cg2d: Sum(rhs),rhsMax =  -5.85108372000047E-03  2.06621042593466E-01
 cg2d: Sum(rhs),rhsMax =  -5.85129110503762E-03  2.06628519457155E-01
 cg2d: Sum(rhs),rhsMax =  -5.85149902409906E-03  2.06635994514114E-01
 cg2d: Sum(rhs),rhsMax =  -5.85170751021800E-03  2.06643467762034E-01
 cg2d: Sum(rhs),rhsMax =  -5.85191659595187E-03  2.06650939198616E-01
 cg2d: Sum(rhs),rhsMax =  -5.85212631352935E-03  2.06658408821546E-01
 cg2d: Sum(rhs),rhsMax =  -5.85233669520082E-03  2.06665876628538E-01
 cg2d: Sum(rhs),rhsMax =  -5.85254777302759E-03  2.06673342617279E-01
 cg2d: Sum(rhs),rhsMax =  -5.85275957802301E-03  2.06680806785470E-01
 cg2d: Sum(rhs),rhsMax =  -5.85297214125586E-03  2.06688269130819E-01
 cg2d: Sum(rhs),rhsMax =  -5.85318549348892E-03  2.06695729651019E-01
 cg2d: Sum(rhs),rhsMax =  -5.85339966457895E-03  2.06703188343779E-01
 cg2d: Sum(rhs),rhsMax =  -5.85361468490753E-03  2.06710645206794E-01
 cg2d: Sum(rhs),rhsMax =  -5.85383058387842E-03  2.06718100237784E-01
 cg2d: Sum(rhs),rhsMax =  -5.85404739040396E-03  2.06725553434436E-01
 cg2d: Sum(rhs),rhsMax =  -5.85426513324731E-03  2.06733004794471E-01
 cg2d: Sum(rhs),rhsMax =  -5.85448384081899E-03  2.06740454315588E-01
 cg2d: Sum(rhs),rhsMax =  -5.85470354064803E-03  2.06747901995499E-01
 cg2d: Sum(rhs),rhsMax =  -5.85492426062510E-03  2.06755347831913E-01
 cg2d: Sum(rhs),rhsMax =  -5.85514602720342E-03  2.06762791822544E-01
 cg2d: Sum(rhs),rhsMax =  -5.85536886774685E-03  2.06770233965097E-01
 cg2d: Sum(rhs),rhsMax =  -5.85559280787841E-03  2.06777674257290E-01
 cg2d: Sum(rhs),rhsMax =  -5.85581787356719E-03  2.06785112696833E-01
 cg2d: Sum(rhs),rhsMax =  -5.85604409015807E-03  2.06792549281440E-01
 cg2d: Sum(rhs),rhsMax =  -5.85627148268534E-03  2.06799984008835E-01
 cg2d: Sum(rhs),rhsMax =  -5.85650007543738E-03  2.06807416876722E-01
 cg2d: Sum(rhs),rhsMax =  -5.85672989216487E-03  2.06814847882828E-01
 cg2d: Sum(rhs),rhsMax =  -5.85696095635181E-03  2.06822277024871E-01
 cg2d: Sum(rhs),rhsMax =  -5.85719329178394E-03  2.06829704300568E-01
 cg2d: Sum(rhs),rhsMax =  -5.85742692058633E-03  2.06837129707641E-01
 cg2d: Sum(rhs),rhsMax =  -5.85766186469262E-03  2.06844553243812E-01
 cg2d: Sum(rhs),rhsMax =  -5.85789814660519E-03  2.06851974906802E-01
 cg2d: Sum(rhs),rhsMax =  -5.85813578713496E-03  2.06859394694343E-01
 cg2d: Sum(rhs),rhsMax =  -5.85837480771014E-03  2.06866812604154E-01
 cg2d: Sum(rhs),rhsMax =  -5.85861522765718E-03  2.06874228633959E-01
 cg2d: Sum(rhs),rhsMax =  -5.85885706782477E-03  2.06881642781490E-01
 cg2d: Sum(rhs),rhsMax =  -5.85910034709917E-03  2.06889055044474E-01
 cg2d: Sum(rhs),rhsMax =  -5.85934508521649E-03  2.06896465420641E-01
 cg2d: Sum(rhs),rhsMax =  -5.85959130028227E-03  2.06903873907725E-01
 cg2d: Sum(rhs),rhsMax =  -5.85983901068372E-03  2.06911280503451E-01
 cg2d: Sum(rhs),rhsMax =  -5.86008823420691E-03  2.06918685205559E-01
 cg2d: Sum(rhs),rhsMax =  -5.86033898771412E-03  2.06926088011782E-01
 cg2d: Sum(rhs),rhsMax =  -5.86059128782663E-03  2.06933488919851E-01
 cg2d: Sum(rhs),rhsMax =  -5.86084515079438E-03  2.06940887927503E-01
 cg2d: Sum(rhs),rhsMax =  -5.86110059329244E-03  2.06948285032481E-01
 cg2d: Sum(rhs),rhsMax =  -5.86135763043003E-03  2.06955680232520E-01
 cg2d: Sum(rhs),rhsMax =  -5.86161627665638E-03  2.06963073525364E-01
 cg2d: Sum(rhs),rhsMax =  -5.86187654715111E-03  2.06970464908745E-01
 cg2d: Sum(rhs),rhsMax =  -5.86213845586474E-03  2.06977854380417E-01
 cg2d: Sum(rhs),rhsMax =  -5.86240201644021E-03  2.06985241938116E-01
 cg2d: Sum(rhs),rhsMax =  -5.86266724188154E-03  2.06992627579585E-01
 cg2d: Sum(rhs),rhsMax =  -5.86293414531168E-03  2.07000011302578E-01
 cg2d: Sum(rhs),rhsMax =  -5.86320273911590E-03  2.07007393104837E-01
 cg2d: Sum(rhs),rhsMax =  -5.86347303494989E-03  2.07014772984110E-01
 cg2d: Sum(rhs),rhsMax =  -5.86374504474946E-03  2.07022150938149E-01
 cg2d: Sum(rhs),rhsMax =  -5.86401877975474E-03  2.07029526964701E-01
 cg2d: Sum(rhs),rhsMax =  -5.86429425015731E-03  2.07036901061521E-01
 cg2d: Sum(rhs),rhsMax =  -5.86457146661648E-03  2.07044273226358E-01
 cg2d: Sum(rhs),rhsMax =  -5.86485043919585E-03  2.07051643456977E-01
 cg2d: Sum(rhs),rhsMax =  -5.86513117692629E-03  2.07059011751120E-01
 cg2d: Sum(rhs),rhsMax =  -5.86541368906496E-03  2.07066378106557E-01
 cg2d: Sum(rhs),rhsMax =  -5.86569798414069E-03  2.07073742521037E-01
 cg2d: Sum(rhs),rhsMax =  -5.86598407082806E-03  2.07081104992319E-01
 cg2d: Sum(rhs),rhsMax =  -5.86627195671506E-03  2.07088465518166E-01
 cg2d: Sum(rhs),rhsMax =  -5.86656164977569E-03  2.07095824096340E-01
 cg2d: Sum(rhs),rhsMax =  -5.86685315650337E-03  2.07103180724611E-01
 cg2d: Sum(rhs),rhsMax =  -5.86714648410902E-03  2.07110535400731E-01
(PID.TID 0000.0001)      cg2d_init_res =   4.90482713966456E-04
(PID.TID 0000.0001)      cg2d_iters(min,last) =      -1      71
(PID.TID 0000.0001)      cg2d_last_res =   9.31940306417937E-08
(PID.TID 0000.0001) // =======================================================
(PID.TID 0000.0001) // Begin MONITOR dynamic field statistics
(PID.TID 0000.0001) // =======================================================
(PID.TID 0000.0001) %MON time_tsnumber                =                 14400
(PID.TID 0000.0001) %MON time_secondsf                =   1.7280000000000E+07
(PID.TID 0000.0001) %MON dynstat_eta_max              =   3.1270325548180E-01
(PID.TID 0000.0001) %MON dynstat_eta_min              =  -1.0285068966510E-01
(PID.TID 0000.0001) %MON dynstat_eta_mean             =   6.0731471147657E-06
(PID.TID 0000.0001) %MON dynstat_eta_sd               =   1.2241238370898E-01
(PID.TID 0000.0001) %MON dynstat_eta_del2             =   3.2200364378937E-05
(PID.TID 0000.0001) %MON dynstat_uvel_max             =   1.5656829192950E-01
(PID.TID 0000.0001) %MON dynstat_uvel_min             =  -1.1823360632885E-01
(PID.TID 0000.0001) %MON dynstat_uvel_mean            =  -1.0866808267470E-08
(PID.TID 0000.0001) %MON dynstat_uvel_sd              =   5.0137871393689E-02
(PID.TID 0000.0001) %MON dynstat_uvel_del2            =   7.2133430033587E-05
(PID.TID 0000.0001) %MON dynstat_vvel_max             =   9.9936178129315E-02
(PID.TID 0000.0001) %MON dynstat_vvel_min             =  -1.2862404061238E-01
(PID.TID 0000.0001) %MON dynstat_vvel_mean            =   1.2638313482166E-07
(PID.TID 0000.0001) %MON dynstat_vvel_sd              =   4.5796579419676E-02
(PID.TID 0000.0001) %MON dynstat_vvel_del2            =   3.9400611155987E-05
(PID.TID 0000.0001) %MON dynstat_wvel_max             =   1.3654533176641E-08
(PID.TID 0000.0001) %MON dynstat_wvel_min             =  -5.7655721576884E-09
(PID.TID 0000.0001) %MON dynstat_wvel_mean            =  -1.3263439137113E-21
(PID.TID 0000.0001) %MON dynstat_wvel_sd              =   4.8315777619983E-09
(PID.TID 0000.0001) %MON dynstat_wvel_del2            =   1.6589799929724E-12
(PID.TID 0000.0001) %MON dynstat_theta_max            =   2.0000000000000E+01
(PID.TID 0000.0001) %MON dynstat_theta_min            =   2.0000000000000E+01
(PID.TID 0000.0001) %MON dynstat_theta_mean           =   2.0000000000000E+01
(PID.TID 0000.0001) %MON dynstat_theta_sd             =   3.8014036363165E-13
(PID.TID 0000.0001) %MON dynstat_theta_del2           =   0.0000000000000E+00
(PID.TID 0000.0001) %MON dynstat_salt_max             =   3.0000000000000E+01
(PID.TID 0000.0001) %MON dynstat_salt_min             =   3.0000000000000E+01
(PID.TID 0000.0001) %MON dynstat_salt_mean            =   2.9999999999999E+01
(PID.TID 0000.0001) %MON dynstat_salt_sd              =   5.5777604757167E-13
(PID.TID 0000.0001) %MON dynstat_salt_del2            =   0.0000000000000E+00
(PID.TID 0000.0001) %MON trAdv_CFL_u_max              =   9.3929783526595E-03
(PID.TID 0000.0001) %MON trAdv_CFL_v_max              =   7.7071552737868E-03
(PID.TID 0000.0001) %MON trAdv_CFL_w_max              =   3.6228658048668E-09
(PID.TID 0000.0001) %MON advcfl_uvel_max              =   9.3940975157702E-03
(PID.TID 0000.0001) %MON advcfl_vvel_max              =   7.7174424367429E-03
(PID.TID 0000.0001) %MON advcfl_wvel_max              =   6.5541759247877E-09
(PID.TID 0000.0001) %MON advcfl_W_hf_max              =   0.0000000000000E+00
(PID.TID 0000.0001) %MON pe_b_mean                    =   1.5362928326913E-05
(PID.TID 0000.0001) %MON ke_max                       =   1.2263995598514E-02
(PID.TID 0000.0001) %MON ke_mean                      =   2.2631702415934E-03
(PID.TID 0000.0001) %MON ke_vol                       =   6.8893493896486E+15
(PID.TID 0000.0001) %MON vort_r_min                   =  -9.9515996266973E-07
(PID.TID 0000.0001) %MON vort_r_max                   =   3.3761844716474E-06
(PID.TID 0000.0001) %MON vort_a_mean                  =   1.0600000000000E-04
(PID.TID 0000.0001) %MON vort_a_sd                    =   3.5676482505269E-06
(PID.TID 0000.0001) %MON vort_p_mean                  =   1.1652272308690E-04
(PID.TID 0000.0001) %MON vort_p_sd                    =   4.1789216067551E-05
(PID.TID 0000.0001) %MON surfExpan_theta_mean         =  -2.6503086145466E-20
(PID.TID 0000.0001) %MON surfExpan_salt_mean          =  -3.9755971354478E-20
(PID.TID 0000.0001) // =======================================================
(PID.TID 0000.0001) // End MONITOR dynamic field statistics
(PID.TID 0000.0001) // =======================================================
 cg2d: Sum(rhs),rhsMax =  -5.86744163934787E-03  2.07117888122473E-01
 cg2d: Sum(rhs),rhsMax =  -5.86773862771961E-03  2.07125238887607E-01
 cg2d: Sum(rhs),rhsMax =  -5.86803745542765E-03  2.07132587693893E-01
 cg2d: Sum(rhs),rhsMax =  -5.86833812725290E-03  2.07139934539108E-01
 cg2d: Sum(rhs),rhsMax =  -5.86864064843044E-03  2.07147279421020E-01
 cg2d: Sum(rhs),rhsMax =  -5.86894502390952E-03  2.07154622337400E-01
 cg2d: Sum(rhs),rhsMax =  -5.86925125742303E-03  2.07161963286019E-01
 cg2d: Sum(rhs),rhsMax =  -5.86955935326920E-03  2.07169302264661E-01
 cg2d: Sum(rhs),rhsMax =  -5.86986931496710E-03  2.07176639271093E-01
 cg2d: Sum(rhs),rhsMax =  -5.87018114550285E-03  2.07183974303098E-01
 cg2d: Sum(rhs),rhsMax =  -5.87049484886801E-03  2.07191307358455E-01
 cg2d: Sum(rhs),rhsMax =  -5.87081042668239E-03  2.07198638434945E-01
 cg2d: Sum(rhs),rhsMax =  -5.87112788165508E-03  2.07205967530344E-01
 cg2d: Sum(rhs),rhsMax =  -5.87144721645935E-03  2.07213294642438E-01
 cg2d: Sum(rhs),rhsMax =  -5.87176843197069E-03  2.07220619769014E-01
 cg2d: Sum(rhs),rhsMax =  -5.87209153006250E-03  2.07227942907853E-01
 cg2d: Sum(rhs),rhsMax =  -5.87241651160225E-03  2.07235264056746E-01
 cg2d: Sum(rhs),rhsMax =  -5.87274337778938E-03  2.07242583213480E-01
 cg2d: Sum(rhs),rhsMax =  -5.87307212921057E-03  2.07249900375848E-01
 cg2d: Sum(rhs),rhsMax =  -5.87340276600549E-03  2.07257215541634E-01
 cg2d: Sum(rhs),rhsMax =  -5.87373528846976E-03  2.07264528708635E-01
 cg2d: Sum(rhs),rhsMax =  -5.87406969647779E-03  2.07271839874650E-01
 cg2d: Sum(rhs),rhsMax =  -5.87440598905566E-03  2.07279149037464E-01
 cg2d: Sum(rhs),rhsMax =  -5.87474416579960E-03  2.07286456194882E-01
 cg2d: Sum(rhs),rhsMax =  -5.87508422575998E-03  2.07293761344695E-01
 cg2d: Sum(rhs),rhsMax =  -5.87542616759697E-03  2.07301064484712E-01
 cg2d: Sum(rhs),rhsMax =  -5.87576998956536E-03  2.07308365612729E-01
 cg2d: Sum(rhs),rhsMax =  -5.87611569048322E-03  2.07315664726552E-01
 cg2d: Sum(rhs),rhsMax =  -5.87646326819584E-03  2.07322961823980E-01
 cg2d: Sum(rhs),rhsMax =  -5.87681272059236E-03  2.07330256902821E-01
 cg2d: Sum(rhs),rhsMax =  -5.87716404483373E-03  2.07337549960886E-01
 cg2d: Sum(rhs),rhsMax =  -5.87751723905358E-03  2.07344840995974E-01
 cg2d: Sum(rhs),rhsMax =  -5.87787229992178E-03  2.07352130005904E-01
 cg2d: Sum(rhs),rhsMax =  -5.87822922501533E-03  2.07359416988486E-01
 cg2d: Sum(rhs),rhsMax =  -5.87858801004998E-03  2.07366701941525E-01
 cg2d: Sum(rhs),rhsMax =  -5.87894865275319E-03  2.07373984862848E-01
 cg2d: Sum(rhs),rhsMax =  -5.87931114891620E-03  2.07381265750260E-01
 cg2d: Sum(rhs),rhsMax =  -5.87967549460312E-03  2.07388544601589E-01
 cg2d: Sum(rhs),rhsMax =  -5.88004168599248E-03  2.07395821414640E-01
 cg2d: Sum(rhs),rhsMax =  -5.88040971896326E-03  2.07403096187249E-01
 cg2d: Sum(rhs),rhsMax =  -5.88077958894285E-03  2.07410368917223E-01
 cg2d: Sum(rhs),rhsMax =  -5.88115129152929E-03  2.07417639602400E-01
 cg2d: Sum(rhs),rhsMax =  -5.88152482210935E-03  2.07424908240597E-01
 cg2d: Sum(rhs),rhsMax =  -5.88190017594990E-03  2.07432174829639E-01
 cg2d: Sum(rhs),rhsMax =  -5.88227734746251E-03  2.07439439367356E-01
 cg2d: Sum(rhs),rhsMax =  -5.88265633221799E-03  2.07446701851583E-01
 cg2d: Sum(rhs),rhsMax =  -5.88303712440362E-03  2.07453962280144E-01
 cg2d: Sum(rhs),rhsMax =  -5.88341971876387E-03  2.07461220650875E-01
 cg2d: Sum(rhs),rhsMax =  -5.88380410972818E-03  2.07468476961612E-01
 cg2d: Sum(rhs),rhsMax =  -5.88419029143821E-03  2.07475731210188E-01
 cg2d: Sum(rhs),rhsMax =  -5.88457825794464E-03  2.07482983394446E-01
 cg2d: Sum(rhs),rhsMax =  -5.88496800325999E-03  2.07490233512217E-01
 cg2d: Sum(rhs),rhsMax =  -5.88535952114743E-03  2.07497481561351E-01
 cg2d: Sum(rhs),rhsMax =  -5.88575280545831E-03  2.07504727539681E-01
 cg2d: Sum(rhs),rhsMax =  -5.88614785016987E-03  2.07511971445060E-01
 cg2d: Sum(rhs),rhsMax =  -5.88654464783232E-03  2.07519213275324E-01
 cg2d: Sum(rhs),rhsMax =  -5.88694319243174E-03  2.07526453028333E-01
 cg2d: Sum(rhs),rhsMax =  -5.88734347718586E-03  2.07533690701924E-01
 cg2d: Sum(rhs),rhsMax =  -5.88774549540417E-03  2.07540926293953E-01
 cg2d: Sum(rhs),rhsMax =  -5.88814923999736E-03  2.07548159802269E-01
 cg2d: Sum(rhs),rhsMax =  -5.88855470388989E-03  2.07555391224735E-01
 cg2d: Sum(rhs),rhsMax =  -5.88896187979825E-03  2.07562620559198E-01
 cg2d: Sum(rhs),rhsMax =  -5.88937076098182E-03  2.07569847803513E-01
 cg2d: Sum(rhs),rhsMax =  -5.88978133955585E-03  2.07577072955550E-01
 cg2d: Sum(rhs),rhsMax =  -5.89019360877824E-03  2.07584296013157E-01
 cg2d: Sum(rhs),rhsMax =  -5.89060756055509E-03  2.07591516974206E-01
 cg2d: Sum(rhs),rhsMax =  -5.89102318763928E-03  2.07598735836557E-01
 cg2d: Sum(rhs),rhsMax =  -5.89144048215214E-03  2.07605952598075E-01
 cg2d: Sum(rhs),rhsMax =  -5.89185943659191E-03  2.07613167256632E-01
 cg2d: Sum(rhs),rhsMax =  -5.89228004291392E-03  2.07620379810091E-01
 cg2d: Sum(rhs),rhsMax =  -5.89270229343717E-03  2.07627590256328E-01
 cg2d: Sum(rhs),rhsMax =  -5.89312618058539E-03  2.07634798593207E-01
(PID.TID 0000.0001)      cg2d_init_res =   4.85478089834868E-04
(PID.TID 0000.0001)      cg2d_iters(min,last) =      -1      71
(PID.TID 0000.0001)      cg2d_last_res =   8.96850124667924E-08
(PID.TID 0000.0001) // =======================================================
(PID.TID 0000.0001) // Begin MONITOR dynamic field statistics
(PID.TID 0000.0001) // =======================================================
(PID.TID 0000.0001) %MON time_tsnumber                =                 14472
(PID.TID 0000.0001) %MON time_secondsf                =   1.7366400000000E+07
(PID.TID 0000.0001) %MON dynstat_eta_max              =   3.1386915526510E-01
(PID.TID 0000.0001) %MON dynstat_eta_min              =  -1.0304050887221E-01
(PID.TID 0000.0001) %MON dynstat_eta_mean             =   6.1156091887883E-06
(PID.TID 0000.0001) %MON dynstat_eta_sd               =   1.2280772454585E-01
(PID.TID 0000.0001) %MON dynstat_eta_del2             =   3.2290896413042E-05
(PID.TID 0000.0001) %MON dynstat_uvel_max             =   1.5701934552893E-01
(PID.TID 0000.0001) %MON dynstat_uvel_min             =  -1.1867828453118E-01
(PID.TID 0000.0001) %MON dynstat_uvel_mean            =  -9.1313362142506E-09
(PID.TID 0000.0001) %MON dynstat_uvel_sd              =   5.0293954546362E-02
(PID.TID 0000.0001) %MON dynstat_uvel_del2            =   7.2288158113766E-05
(PID.TID 0000.0001) %MON dynstat_vvel_max             =   1.0039439550389E-01
(PID.TID 0000.0001) %MON dynstat_vvel_min             =  -1.2891287188118E-01
(PID.TID 0000.0001) %MON dynstat_vvel_mean            =   1.2777267644561E-07
(PID.TID 0000.0001) %MON dynstat_vvel_sd              =   4.5949431888304E-02
(PID.TID 0000.0001) %MON dynstat_vvel_del2            =   3.9279454203519E-05
(PID.TID 0000.0001) %MON dynstat_wvel_max             =   1.3624154233958E-08
(PID.TID 0000.0001) %MON dynstat_wvel_min             =  -5.8070576540194E-09
(PID.TID 0000.0001) %MON dynstat_wvel_mean            =   1.7944076565376E-21
(PID.TID 0000.0001) %MON dynstat_wvel_sd              =   4.8279041129973E-09
(PID.TID 0000.0001) %MON dynstat_wvel_del2            =   1.6458691387969E-12
(PID.TID 0000.0001) %MON dynstat_theta_max            =   2.0000000000000E+01
(PID.TID 0000.0001) %MON dynstat_theta_min            =   2.0000000000000E+01
(PID.TID 0000.0001) %MON dynstat_theta_mean           =   2.0000000000000E+01
(PID.TID 0000.0001) %MON dynstat_theta_sd             =   3.8014036363165E-13
(PID.TID 0000.0001) %MON dynstat_theta_del2           =   0.0000000000000E+00
(PID.TID 0000.0001) %MON dynstat_salt_max             =   3.0000000000000E+01
(PID.TID 0000.0001) %MON dynstat_salt_min             =   3.0000000000000E+01
(PID.TID 0000.0001) %MON dynstat_salt_mean            =   2.9999999999999E+01
(PID.TID 0000.0001) %MON dynstat_salt_sd              =   5.5777604757167E-13
(PID.TID 0000.0001) %MON dynstat_salt_del2            =   0.0000000000000E+00
(PID.TID 0000.0001) %MON trAdv_CFL_u_max              =   9.4200414252837E-03
(PID.TID 0000.0001) %MON trAdv_CFL_v_max              =   7.7244571645743E-03
(PID.TID 0000.0001) %MON trAdv_CFL_w_max              =   3.6147954518466E-09
(PID.TID 0000.0001) %MON advcfl_uvel_max              =   9.4211607317359E-03
(PID.TID 0000.0001) %MON advcfl_vvel_max              =   7.7347723128708E-03
(PID.TID 0000.0001) %MON advcfl_wvel_max              =   6.5395940322996E-09
(PID.TID 0000.0001) %MON advcfl_W_hf_max              =   0.0000000000000E+00
(PID.TID 0000.0001) %MON pe_b_mean                    =   1.5462320240672E-05
(PID.TID 0000.0001) %MON ke_max                       =   1.2334018182799E-02
(PID.TID 0000.0001) %MON ke_mean                      =   2.2777468370625E-03
(PID.TID 0000.0001) %MON ke_vol                       =   6.8893493896486E+15
(PID.TID 0000.0001) %MON vort_r_min                   =  -9.9624829042848E-07
(PID.TID 0000.0001) %MON vort_r_max                   =   3.3855344826084E-06
(PID.TID 0000.0001) %MON vort_a_mean                  =   1.0600000000000E-04
(PID.TID 0000.0001) %MON vort_a_sd                    =   3.5678793525472E-06
(PID.TID 0000.0001) %MON vort_p_mean                  =   1.1652272308690E-04
(PID.TID 0000.0001) %MON vort_p_sd                    =   4.1789301042886E-05
(PID.TID 0000.0001) %MON surfExpan_theta_mean         =   3.5876408017228E-20
(PID.TID 0000.0001) %MON surfExpan_salt_mean          =   5.3816822603241E-20
(PID.TID 0000.0001) // =======================================================
(PID.TID 0000.0001) // End MONITOR dynamic field statistics
(PID.TID 0000.0001) // =======================================================
 cg2d: Sum(rhs),rhsMax =  -5.89355169557479E-03  2.07642004818613E-01
 cg2d: Sum(rhs),rhsMax =  -5.89397883077127E-03  2.07649208930415E-01
 cg2d: Sum(rhs),rhsMax =  -5.89440757819980E-03  2.07656410926499E-01
 cg2d: Sum(rhs),rhsMax =  -5.89483792966395E-03  2.07663610804738E-01
 cg2d: Sum(rhs),rhsMax =  -5.89526987673351E-03  2.07670808563010E-01
 cg2d: Sum(rhs),rhsMax =  -5.89570341133681E-03  2.07678004199204E-01
 cg2d: Sum(rhs),rhsMax =  -5.89613852493751E-03  2.07685197711208E-01
 cg2d: Sum(rhs),rhsMax =  -5.89657520971640E-03  2.07692389096900E-01
 cg2d: Sum(rhs),rhsMax =  -5.89701345641705E-03  2.07699578354173E-01
 cg2d: Sum(rhs),rhsMax =  -5.89745325719423E-03  2.07706765480917E-01
 cg2d: Sum(rhs),rhsMax =  -5.89789460344533E-03  2.07713950475026E-01
 cg2d: Sum(rhs),rhsMax =  -5.89833748643733E-03  2.07721133334390E-01
 cg2d: Sum(rhs),rhsMax =  -5.89878189801721E-03  2.07728314056912E-01
 cg2d: Sum(rhs),rhsMax =  -5.89922782942930E-03  2.07735492640487E-01
 cg2d: Sum(rhs),rhsMax =  -5.89967527145564E-03  2.07742669083005E-01
 cg2d: Sum(rhs),rhsMax =  -5.90012421639661E-03  2.07749843382375E-01
 cg2d: Sum(rhs),rhsMax =  -5.90057465474542E-03  2.07757015536503E-01
 cg2d: Sum(rhs),rhsMax =  -5.90102657849164E-03  2.07764185543288E-01
 cg2d: Sum(rhs),rhsMax =  -5.90147997889817E-03  2.07771353400646E-01
 cg2d: Sum(rhs),rhsMax =  -5.90193484653543E-03  2.07778519106472E-01
 cg2d: Sum(rhs),rhsMax =  -5.90239117288038E-03  2.07785682658682E-01
 cg2d: Sum(rhs),rhsMax =  -5.90284894938234E-03  2.07792844055198E-01
 cg2d: Sum(rhs),rhsMax =  -5.90330816720141E-03  2.07800003293922E-01
 cg2d: Sum(rhs),rhsMax =  -5.90376881728397E-03  2.07807160372776E-01
 cg2d: Sum(rhs),rhsMax =  -5.90423089151095E-03  2.07814315289682E-01
 cg2d: Sum(rhs),rhsMax =  -5.90469438003691E-03  2.07821468042550E-01
 cg2d: Sum(rhs),rhsMax =  -5.90515927486782E-03  2.07828618629311E-01
 cg2d: Sum(rhs),rhsMax =  -5.90562556613423E-03  2.07835767047884E-01
 cg2d: Sum(rhs),rhsMax =  -5.90609324597137E-03  2.07842913296201E-01
 cg2d: Sum(rhs),rhsMax =  -5.90656230495937E-03  2.07850057372182E-01
 cg2d: Sum(rhs),rhsMax =  -5.90703273470729E-03  2.07857199273760E-01
 cg2d: Sum(rhs),rhsMax =  -5.90750452607550E-03  2.07864338998872E-01
 cg2d: Sum(rhs),rhsMax =  -5.90797766998757E-03  2.07871476545444E-01
 cg2d: Sum(rhs),rhsMax =  -5.90845215794168E-03  2.07878611911414E-01
 cg2d: Sum(rhs),rhsMax =  -5.90892798020998E-03  2.07885745094724E-01
 cg2d: Sum(rhs),rhsMax =  -5.90940512906167E-03  2.07892876093309E-01
 cg2d: Sum(rhs),rhsMax =  -5.90988359497574E-03  2.07900004905112E-01
 cg2d: Sum(rhs),rhsMax =  -5.91036336967557E-03  2.07907131528078E-01
 cg2d: Sum(rhs),rhsMax =  -5.91084444344112E-03  2.07914255960151E-01
 cg2d: Sum(rhs),rhsMax =  -5.91132680752412E-03  2.07921378199286E-01
 cg2d: Sum(rhs),rhsMax =  -5.91181045375789E-03  2.07928498243421E-01
 cg2d: Sum(rhs),rhsMax =  -5.91229537288364E-03  2.07935616090512E-01
 cg2d: Sum(rhs),rhsMax =  -5.91278155570861E-03  2.07942731738521E-01
 cg2d: Sum(rhs),rhsMax =  -5.91326899421584E-03  2.07949845185390E-01
 cg2d: Sum(rhs),rhsMax =  -5.91375767929901E-03  2.07956956429093E-01
 cg2d: Sum(rhs),rhsMax =  -5.91424760140904E-03  2.07964065467576E-01
 cg2d: Sum(rhs),rhsMax =  -5.91473875314086E-03  2.07971172298806E-01
 cg2d: Sum(rhs),rhsMax =  -5.91523112432135E-03  2.07978276920750E-01
 cg2d: Sum(rhs),rhsMax =  -5.91572470724304E-03  2.07985379331374E-01
 cg2d: Sum(rhs),rhsMax =  -5.91621949247071E-03  2.07992479528648E-01
 cg2d: Sum(rhs),rhsMax =  -5.91671547221274E-03  2.07999577510538E-01
 cg2d: Sum(rhs),rhsMax =  -5.91721263680188E-03  2.08006673275015E-01
 cg2d: Sum(rhs),rhsMax =  -5.91771097783649E-03  2.08013766820062E-01
 cg2d: Sum(rhs),rhsMax =  -5.91821048677153E-03  2.08020858143649E-01
 cg2d: Sum(rhs),rhsMax =  -5.91871115492508E-03  2.08027947243759E-01
 cg2d: Sum(rhs),rhsMax =  -5.91921297402185E-03  2.08035034118368E-01
 cg2d: Sum(rhs),rhsMax =  -5.91971593529626E-03  2.08042118765466E-01
 cg2d: Sum(rhs),rhsMax =  -5.92022002958955E-03  2.08049201183037E-01
 cg2d: Sum(rhs),rhsMax =  -5.92072524892946E-03  2.08056281369065E-01
 cg2d: Sum(rhs),rhsMax =  -5.92123158479775E-03  2.08063359321543E-01
 cg2d: Sum(rhs),rhsMax =  -5.92173902848908E-03  2.08070435038464E-01
 cg2d: Sum(rhs),rhsMax =  -5.92224757127180E-03  2.08077508517820E-01
 cg2d: Sum(rhs),rhsMax =  -5.92275720489290E-03  2.08084579757610E-01
 cg2d: Sum(rhs),rhsMax =  -5.92326792136260E-03  2.08091648755830E-01
 cg2d: Sum(rhs),rhsMax =  -5.92377971153975E-03  2.08098715510481E-01
 cg2d: Sum(rhs),rhsMax =  -5.92429256702462E-03  2.08105780019572E-01
 cg2d: Sum(rhs),rhsMax =  -5.92480648029486E-03  2.08112842281096E-01
 cg2d: Sum(rhs),rhsMax =  -5.92532144241988E-03  2.08119902293075E-01
 cg2d: Sum(rhs),rhsMax =  -5.92583744480468E-03  2.08126960053509E-01
 cg2d: Sum(rhs),rhsMax =  -5.92635448001082E-03  2.08134015560415E-01
 cg2d: Sum(rhs),rhsMax =  -5.92687253935425E-03  2.08141068811808E-01
 cg2d: Sum(rhs),rhsMax =  -5.92739161443851E-03  2.08148119805699E-01
(PID.TID 0000.0001)      cg2d_init_res =   4.80331184364990E-04
(PID.TID 0000.0001)      cg2d_iters(min,last) =      -1      71
(PID.TID 0000.0001)      cg2d_last_res =   8.70578359774585E-08
(PID.TID 0000.0001) // =======================================================
(PID.TID 0000.0001) // Begin MONITOR dynamic field statistics
(PID.TID 0000.0001) // =======================================================
(PID.TID 0000.0001) %MON time_tsnumber                =                 14544
(PID.TID 0000.0001) %MON time_secondsf                =   1.7452800000000E+07
(PID.TID 0000.0001) %MON dynstat_eta_max              =   3.1503460859062E-01
(PID.TID 0000.0001) %MON dynstat_eta_min              =  -1.0322759744237E-01
(PID.TID 0000.0001) %MON dynstat_eta_mean             =   6.1664659606239E-06
(PID.TID 0000.0001) %MON dynstat_eta_sd               =   1.2320246489819E-01
(PID.TID 0000.0001) %MON dynstat_eta_del2             =   3.2380607626983E-05
(PID.TID 0000.0001) %MON dynstat_uvel_max             =   1.5746759463686E-01
(PID.TID 0000.0001) %MON dynstat_uvel_min             =  -1.1912548080878E-01
(PID.TID 0000.0001) %MON dynstat_uvel_mean            =  -6.5452215602070E-09
(PID.TID 0000.0001) %MON dynstat_uvel_sd              =   5.0451317489735E-02
(PID.TID 0000.0001) %MON dynstat_uvel_del2            =   7.2440718251468E-05
(PID.TID 0000.0001) %MON dynstat_vvel_max             =   1.0085848792996E-01
(PID.TID 0000.0001) %MON dynstat_vvel_min             =  -1.2920931268491E-01
(PID.TID 0000.0001) %MON dynstat_vvel_mean            =   1.2913655456571E-07
(PID.TID 0000.0001) %MON dynstat_vvel_sd              =   4.6099621384318E-02
(PID.TID 0000.0001) %MON dynstat_vvel_del2            =   3.9154955759656E-05
(PID.TID 0000.0001) %MON dynstat_wvel_max             =   1.3596839318316E-08
(PID.TID 0000.0001) %MON dynstat_wvel_min             =  -5.8244441670831E-09
(PID.TID 0000.0001) %MON dynstat_wvel_mean            =   1.0140393492798E-21
(PID.TID 0000.0001) %MON dynstat_wvel_sd              =   4.8260104335373E-09
(PID.TID 0000.0001) %MON dynstat_wvel_del2            =   1.6311555568275E-12
(PID.TID 0000.0001) %MON dynstat_theta_max            =   2.0000000000000E+01
(PID.TID 0000.0001) %MON dynstat_theta_min            =   2.0000000000000E+01
(PID.TID 0000.0001) %MON dynstat_theta_mean           =   2.0000000000000E+01
(PID.TID 0000.0001) %MON dynstat_theta_sd             =   3.8014036363165E-13
(PID.TID 0000.0001) %MON dynstat_theta_del2           =   0.0000000000000E+00
(PID.TID 0000.0001) %MON dynstat_salt_max             =   3.0000000000000E+01
(PID.TID 0000.0001) %MON dynstat_salt_min             =   3.0000000000000E+01
(PID.TID 0000.0001) %MON dynstat_salt_mean            =   2.9999999999999E+01
(PID.TID 0000.0001) %MON dynstat_salt_sd              =   5.5777604757167E-13
(PID.TID 0000.0001) %MON dynstat_salt_del2            =   0.0000000000000E+00
(PID.TID 0000.0001) %MON trAdv_CFL_u_max              =   9.4469369178499E-03
(PID.TID 0000.0001) %MON trAdv_CFL_v_max              =   7.7422132501880E-03
(PID.TID 0000.0001) %MON trAdv_CFL_w_max              =   3.6075362152006E-09
(PID.TID 0000.0001) %MON advcfl_uvel_max              =   9.4480556782117E-03
(PID.TID 0000.0001) %MON advcfl_vvel_max              =   7.7525587610948E-03
(PID.TID 0000.0001) %MON advcfl_wvel_max              =   6.5264828727915E-09
(PID.TID 0000.0001) %MON advcfl_W_hf_max              =   0.0000000000000E+00
(PID.TID 0000.0001) %MON pe_b_mean                    =   1.5561880934876E-05
(PID.TID 0000.0001) %MON ke_max                       =   1.2403765757594E-02
(PID.TID 0000.0001) %MON ke_mean                      =   2.2923131516844E-03
(PID.TID 0000.0001) %MON ke_vol                       =   6.8893493896486E+15
(PID.TID 0000.0001) %MON vort_r_min                   =  -9.9726198461947E-07
(PID.TID 0000.0001) %MON vort_r_max                   =   3.3947949393271E-06
(PID.TID 0000.0001) %MON vort_a_mean                  =   1.0600000000000E-04
(PID.TID 0000.0001) %MON vort_a_sd                    =   3.5681074103879E-06
(PID.TID 0000.0001) %MON vort_p_mean                  =   1.1652272308690E-04
(PID.TID 0000.0001) %MON vort_p_sd                    =   4.1789388572806E-05
(PID.TID 0000.0001) %MON surfExpan_theta_mean         =   2.0289764929910E-20
(PID.TID 0000.0001) %MON surfExpan_salt_mean          =   3.0432121020693E-20
(PID.TID 0000.0001) // =======================================================
(PID.TID 0000.0001) // End MONITOR dynamic field statistics
(PID.TID 0000.0001) // =======================================================
 cg2d: Sum(rhs),rhsMax =  -5.92791169714979E-03  2.08155168540109E-01
 cg2d: Sum(rhs),rhsMax =  -5.92843277923753E-03  2.08162215013065E-01
 cg2d: Sum(rhs),rhsMax =  -5.92895485300213E-03  2.08169259222590E-01
 cg2d: Sum(rhs),rhsMax =  -5.92947791009459E-03  2.08176301166700E-01
 cg2d: Sum(rhs),rhsMax =  -5.93000194233365E-03  2.08183340843429E-01
 cg2d: Sum(rhs),rhsMax =  -5.93052694168141E-03  2.08190378250815E-01
 cg2d: Sum(rhs),rhsMax =  -5.93105290013815E-03  2.08197413386878E-01
 cg2d: Sum(rhs),rhsMax =  -5.93157980945640E-03  2.08204446249660E-01
 cg2d: Sum(rhs),rhsMax =  -5.93210766240218E-03  2.08211476837197E-01
 cg2d: Sum(rhs),rhsMax =  -5.93263645031561E-03  2.08218505147533E-01
 cg2d: Sum(rhs),rhsMax =  -5.93316616578065E-03  2.08225531178704E-01
 cg2d: Sum(rhs),rhsMax =  -5.93369680039682E-03  2.08232554928760E-01
 cg2d: Sum(rhs),rhsMax =  -5.93422834746337E-03  2.08239576395745E-01
 cg2d: Sum(rhs),rhsMax =  -5.93476079777941E-03  2.08246595577708E-01
 cg2d: Sum(rhs),rhsMax =  -5.93529414430067E-03  2.08253612472699E-01
 cg2d: Sum(rhs),rhsMax =  -5.93582837935658E-03  2.08260627078783E-01
 cg2d: Sum(rhs),rhsMax =  -5.93646415754518E-03  2.08267639969116E-01
 cg2d: Sum(rhs),rhsMax =  -5.93710102357504E-03  2.08274649965334E-01
 cg2d: Sum(rhs),rhsMax =  -5.93773847228093E-03  2.08281657671714E-01
 cg2d: Sum(rhs),rhsMax =  -5.93837665270246E-03  2.08288663096400E-01
 cg2d: Sum(rhs),rhsMax =  -5.93901557545605E-03  2.08295666223525E-01
 cg2d: Sum(rhs),rhsMax =  -5.93965523439188E-03  2.08302667049450E-01
 cg2d: Sum(rhs),rhsMax =  -5.94029561977876E-03  2.08309665572365E-01
 cg2d: Sum(rhs),rhsMax =  -5.94093672121707E-03  2.08316661790389E-01
 cg2d: Sum(rhs),rhsMax =  -5.94157853084303E-03  2.08323655701676E-01
 cg2d: Sum(rhs),rhsMax =  -5.94222104197735E-03  2.08330647304547E-01
 cg2d: Sum(rhs),rhsMax =  -5.94286424818261E-03  2.08337636597351E-01
 cg2d: Sum(rhs),rhsMax =  -5.94350814447207E-03  2.08344623578308E-01
 cg2d: Sum(rhs),rhsMax =  -5.94415272447320E-03  2.08351608245479E-01
 cg2d: Sum(rhs),rhsMax =  -5.94479798215873E-03  2.08358590596858E-01
 cg2d: Sum(rhs),rhsMax =  -5.94544391103076E-03  2.08365570630458E-01
 cg2d: Sum(rhs),rhsMax =  -5.94609050455560E-03  2.08372548344330E-01
 cg2d: Sum(rhs),rhsMax =  -5.94673775633497E-03  2.08379523736561E-01
 cg2d: Sum(rhs),rhsMax =  -5.94738565978688E-03  2.08386496805266E-01
 cg2d: Sum(rhs),rhsMax =  -5.94803420884778E-03  2.08393467548561E-01
 cg2d: Sum(rhs),rhsMax =  -5.94868339749328E-03  2.08400435964555E-01
 cg2d: Sum(rhs),rhsMax =  -5.94933321971918E-03  2.08407402051361E-01
 cg2d: Sum(rhs),rhsMax =  -5.94998366919712E-03  2.08414365807086E-01
 cg2d: Sum(rhs),rhsMax =  -5.95063473958900E-03  2.08421327229844E-01
 cg2d: Sum(rhs),rhsMax =  -5.95128642527971E-03  2.08428286317751E-01
 cg2d: Sum(rhs),rhsMax =  -5.95193871981839E-03  2.08435243068934E-01
 cg2d: Sum(rhs),rhsMax =  -5.95259161772495E-03  2.08442197481500E-01
 cg2d: Sum(rhs),rhsMax =  -5.95324511201805E-03  2.08449149553582E-01
 cg2d: Sum(rhs),rhsMax =  -5.95389919733401E-03  2.08456099283291E-01
 cg2d: Sum(rhs),rhsMax =  -5.95455386768273E-03  2.08463046668758E-01
 cg2d: Sum(rhs),rhsMax =  -5.95520911731222E-03  2.08469991708112E-01
 cg2d: Sum(rhs),rhsMax =  -5.95586494012422E-03  2.08476934399485E-01
 cg2d: Sum(rhs),rhsMax =  -5.95652133051659E-03  2.08483874741011E-01
 cg2d: Sum(rhs),rhsMax =  -5.95717828241800E-03  2.08490812730836E-01
 cg2d: Sum(rhs),rhsMax =  -5.95783579021587E-03  2.08497748367097E-01
 cg2d: Sum(rhs),rhsMax =  -5.95849384812433E-03  2.08504681647934E-01
 cg2d: Sum(rhs),rhsMax =  -5.95915245035381E-03  2.08511612571499E-01
 cg2d: Sum(rhs),rhsMax =  -5.95981159101253E-03  2.08518541135944E-01
 cg2d: Sum(rhs),rhsMax =  -5.96047126482900E-03  2.08525467339414E-01
 cg2d: Sum(rhs),rhsMax =  -5.96113146574361E-03  2.08532391180068E-01
 cg2d: Sum(rhs),rhsMax =  -5.96179218850608E-03  2.08539312656061E-01
 cg2d: Sum(rhs),rhsMax =  -5.96245342750210E-03  2.08546231765550E-01
 cg2d: Sum(rhs),rhsMax =  -5.96311517668824E-03  2.08553148506703E-01
 cg2d: Sum(rhs),rhsMax =  -5.96377743099618E-03  2.08560062877678E-01
 cg2d: Sum(rhs),rhsMax =  -5.96444018514813E-03  2.08566974876653E-01
 cg2d: Sum(rhs),rhsMax =  -5.96510343289591E-03  2.08573884501794E-01
 cg2d: Sum(rhs),rhsMax =  -5.96576716924234E-03  2.08580791751275E-01
 cg2d: Sum(rhs),rhsMax =  -5.96643138902978E-03  2.08587696623271E-01
 cg2d: Sum(rhs),rhsMax =  -5.96709608621917E-03  2.08594599115968E-01
 cg2d: Sum(rhs),rhsMax =  -5.96776125573969E-03  2.08601499227541E-01
 cg2d: Sum(rhs),rhsMax =  -5.96842689220910E-03  2.08608396956178E-01
 cg2d: Sum(rhs),rhsMax =  -5.96909299045983E-03  2.08615292300070E-01
 cg2d: Sum(rhs),rhsMax =  -5.96975954530071E-03  2.08622185257405E-01
 cg2d: Sum(rhs),rhsMax =  -5.97042655130350E-03  2.08629075826374E-01
 cg2d: Sum(rhs),rhsMax =  -5.97109400299384E-03  2.08635964005178E-01
 cg2d: Sum(rhs),rhsMax =  -5.97176189572900E-03  2.08642849792017E-01
 cg2d: Sum(rhs),rhsMax =  -5.97243022426974E-03  2.08649733185088E-01
(PID.TID 0000.0001)      cg2d_init_res =   4.75128473909845E-04
(PID.TID 0000.0001)      cg2d_iters(min,last) =      -1      70
(PID.TID 0000.0001)      cg2d_last_res =   9.77503609652511E-08
(PID.TID 0000.0001) // =======================================================
(PID.TID 0000.0001) // Begin MONITOR dynamic field statistics
(PID.TID 0000.0001) // =======================================================
(PID.TID 0000.0001) %MON time_tsnumber                =                 14616
(PID.TID 0000.0001) %MON time_secondsf                =   1.7539200000000E+07
(PID.TID 0000.0001) %MON dynstat_eta_max              =   3.1619985813797E-01
(PID.TID 0000.0001) %MON dynstat_eta_min              =  -1.0341314429928E-01
(PID.TID 0000.0001) %MON dynstat_eta_mean             =   6.2284399463000E-06
(PID.TID 0000.0001) %MON dynstat_eta_sd               =   1.2359668816242E-01
(PID.TID 0000.0001) %MON dynstat_eta_del2             =   3.2469413584518E-05
(PID.TID 0000.0001) %MON dynstat_uvel_max             =   1.5791222053653E-01
(PID.TID 0000.0001) %MON dynstat_uvel_min             =  -1.1957618631987E-01
(PID.TID 0000.0001) %MON dynstat_uvel_mean            =  -3.0836471854199E-09
(PID.TID 0000.0001) %MON dynstat_uvel_sd              =   5.0610141006875E-02
(PID.TID 0000.0001) %MON dynstat_uvel_del2            =   7.2590572746440E-05
(PID.TID 0000.0001) %MON dynstat_vvel_max             =   1.0132729995030E-01
(PID.TID 0000.0001) %MON dynstat_vvel_min             =  -1.2951542064638E-01
(PID.TID 0000.0001) %MON dynstat_vvel_mean            =   1.3029891016613E-07
(PID.TID 0000.0001) %MON dynstat_vvel_sd              =   4.6247011487543E-02
(PID.TID 0000.0001) %MON dynstat_vvel_del2            =   3.9027961396320E-05
(PID.TID 0000.0001) %MON dynstat_wvel_max             =   1.3586552367778E-08
(PID.TID 0000.0001) %MON dynstat_wvel_min             =  -5.8108958310913E-09
(PID.TID 0000.0001) %MON dynstat_wvel_mean            =   4.3205782023708E-21
(PID.TID 0000.0001) %MON dynstat_wvel_sd              =   4.8252683768739E-09
(PID.TID 0000.0001) %MON dynstat_wvel_del2            =   1.6153779943731E-12
(PID.TID 0000.0001) %MON dynstat_theta_max            =   2.0000000000000E+01
(PID.TID 0000.0001) %MON dynstat_theta_min            =   2.0000000000000E+01
(PID.TID 0000.0001) %MON dynstat_theta_mean           =   2.0000000000000E+01
(PID.TID 0000.0001) %MON dynstat_theta_sd             =   3.8014036363165E-13
(PID.TID 0000.0001) %MON dynstat_theta_del2           =   0.0000000000000E+00
(PID.TID 0000.0001) %MON dynstat_salt_max             =   3.0000000000000E+01
(PID.TID 0000.0001) %MON dynstat_salt_min             =   3.0000000000000E+01
(PID.TID 0000.0001) %MON dynstat_salt_mean            =   2.9999999999999E+01
(PID.TID 0000.0001) %MON dynstat_salt_sd              =   5.5777604757167E-13
(PID.TID 0000.0001) %MON dynstat_salt_del2            =   0.0000000000000E+00
(PID.TID 0000.0001) %MON trAdv_CFL_u_max              =   9.4736157220915E-03
(PID.TID 0000.0001) %MON trAdv_CFL_v_max              =   7.7605469731871E-03
(PID.TID 0000.0001) %MON trAdv_CFL_w_max              =   3.6042736760180E-09
(PID.TID 0000.0001) %MON advcfl_uvel_max              =   9.4747332321916E-03
(PID.TID 0000.0001) %MON advcfl_vvel_max              =   7.7709252387827E-03
(PID.TID 0000.0001) %MON advcfl_wvel_max              =   6.5215451365337E-09
(PID.TID 0000.0001) %MON advcfl_W_hf_max              =   0.0000000000000E+00
(PID.TID 0000.0001) %MON pe_b_mean                    =   1.5661630086707E-05
(PID.TID 0000.0001) %MON ke_max                       =   1.2473100441280E-02
(PID.TID 0000.0001) %MON ke_mean                      =   2.3068713889104E-03
(PID.TID 0000.0001) %MON ke_vol                       =   6.8893493896486E+15
(PID.TID 0000.0001) %MON vort_r_min                   =  -9.9815945208808E-07
(PID.TID 0000.0001) %MON vort_r_max                   =   3.4039506610129E-06
(PID.TID 0000.0001) %MON vort_a_mean                  =   1.0600000000000E-04
(PID.TID 0000.0001) %MON vort_a_sd                    =   3.5683323345799E-06
(PID.TID 0000.0001) %MON vort_p_mean                  =   1.1652272308690E-04
(PID.TID 0000.0001) %MON vort_p_sd                    =   4.1789478446674E-05
(PID.TID 0000.0001) %MON surfExpan_theta_mean         =   8.6432471056873E-20
(PID.TID 0000.0001) %MON surfExpan_salt_mean          =   1.2963607471445E-19
(PID.TID 0000.0001) // =======================================================
(PID.TID 0000.0001) // End MONITOR dynamic field statistics
(PID.TID 0000.0001) // =======================================================
 cg2d: Sum(rhs),rhsMax =  -5.97309898285150E-03  2.08656614182599E-01
 cg2d: Sum(rhs),rhsMax =  -5.97376816662210E-03  2.08663492782763E-01
 cg2d: Sum(rhs),rhsMax =  -5.97443777091232E-03  2.08670368983784E-01
 cg2d: Sum(rhs),rhsMax =  -5.97510779009874E-03  2.08677242783876E-01
 cg2d: Sum(rhs),rhsMax =  -5.97577821944191E-03  2.08684114181259E-01
 cg2d: Sum(rhs),rhsMax =  -5.97644905385843E-03  2.08690983174155E-01
 cg2d: Sum(rhs),rhsMax =  -5.97712028829469E-03  2.08697849760785E-01
 cg2d: Sum(rhs),rhsMax =  -5.97779191777540E-03  2.08704713939370E-01
 cg2d: Sum(rhs),rhsMax =  -5.97846393716132E-03  2.08711575708148E-01
 cg2d: Sum(rhs),rhsMax =  -5.97913634210621E-03  2.08718435065340E-01
 cg2d: Sum(rhs),rhsMax =  -5.97980912720113E-03  2.08725292009191E-01
 cg2d: Sum(rhs),rhsMax =  -5.98048228742170E-03  2.08732146537929E-01
 cg2d: Sum(rhs),rhsMax =  -5.98115581860972E-03  2.08738998649802E-01
 cg2d: Sum(rhs),rhsMax =  -5.98182971541762E-03  2.08745848343051E-01
 cg2d: Sum(rhs),rhsMax =  -5.98250397308732E-03  2.08752695615918E-01
 cg2d: Sum(rhs),rhsMax =  -5.98317858696527E-03  2.08759540466661E-01
 cg2d: Sum(rhs),rhsMax =  -5.98385355241013E-03  2.08766382893531E-01
 cg2d: Sum(rhs),rhsMax =  -5.98452886461183E-03  2.08773222894779E-01
 cg2d: Sum(rhs),rhsMax =  -5.98520451820272E-03  2.08780060468667E-01
 cg2d: Sum(rhs),rhsMax =  -5.98588050992255E-03  2.08786895613456E-01
 cg2d: Sum(rhs),rhsMax =  -5.98655683401912E-03  2.08793728327410E-01
 cg2d: Sum(rhs),rhsMax =  -5.98723348616287E-03  2.08800558608802E-01
 cg2d: Sum(rhs),rhsMax =  -5.98791046170037E-03  2.08807386455898E-01
 cg2d: Sum(rhs),rhsMax =  -5.98858775611314E-03  2.08814211866970E-01
 cg2d: Sum(rhs),rhsMax =  -5.98926536503544E-03  2.08821034840308E-01
 cg2d: Sum(rhs),rhsMax =  -5.98994328324578E-03  2.08827855374178E-01
 cg2d: Sum(rhs),rhsMax =  -5.99062150681420E-03  2.08834673466869E-01
 cg2d: Sum(rhs),rhsMax =  -5.99130003105757E-03  2.08841489116666E-01
 cg2d: Sum(rhs),rhsMax =  -5.99197885177849E-03  2.08848302321865E-01
 cg2d: Sum(rhs),rhsMax =  -5.99265796414557E-03  2.08855113080752E-01
 cg2d: Sum(rhs),rhsMax =  -5.99333736394294E-03  2.08861921391627E-01
 cg2d: Sum(rhs),rhsMax =  -5.99401704669240E-03  2.08868727252788E-01
 cg2d: Sum(rhs),rhsMax =  -5.99469700769970E-03  2.08875530662538E-01
 cg2d: Sum(rhs),rhsMax =  -5.99537724316700E-03  2.08882331619181E-01
 cg2d: Sum(rhs),rhsMax =  -5.99605774858839E-03  2.08889130121030E-01
 cg2d: Sum(rhs),rhsMax =  -5.99673851907952E-03  2.08895926166395E-01
 cg2d: Sum(rhs),rhsMax =  -5.99741955078460E-03  2.08902719753587E-01
 cg2d: Sum(rhs),rhsMax =  -5.99810083964349E-03  2.08909510880932E-01
 cg2d: Sum(rhs),rhsMax =  -5.99878238120776E-03  2.08916299546745E-01
 cg2d: Sum(rhs),rhsMax =  -5.99946417087215E-03  2.08923085749356E-01
 cg2d: Sum(rhs),rhsMax =  -6.00014620467690E-03  2.08929869487089E-01
 cg2d: Sum(rhs),rhsMax =  -6.00082847864616E-03  2.08936650758282E-01
 cg2d: Sum(rhs),rhsMax =  -6.00151098807077E-03  2.08943429561263E-01
 cg2d: Sum(rhs),rhsMax =  -6.00219372920930E-03  2.08950205894371E-01
 cg2d: Sum(rhs),rhsMax =  -6.00287669789821E-03  2.08956979755950E-01
 cg2d: Sum(rhs),rhsMax =  -6.00355988973966E-03  2.08963751144346E-01
 cg2d: Sum(rhs),rhsMax =  -6.00424330119599E-03  2.08970520057907E-01
 cg2d: Sum(rhs),rhsMax =  -6.00492692753996E-03  2.08977286494979E-01
 cg2d: Sum(rhs),rhsMax =  -6.00561076497399E-03  2.08984050453921E-01
 cg2d: Sum(rhs),rhsMax =  -6.00629480925889E-03  2.08990811933085E-01
 cg2d: Sum(rhs),rhsMax =  -6.00697905654268E-03  2.08997570930846E-01
 cg2d: Sum(rhs),rhsMax =  -6.00766350284676E-03  2.09004327445550E-01
 cg2d: Sum(rhs),rhsMax =  -6.00845462214442E-03  2.09011081453533E-01
 cg2d: Sum(rhs),rhsMax =  -6.00924563207840E-03  2.09017833007786E-01
 cg2d: Sum(rhs),rhsMax =  -6.01003688410811E-03  2.09024582040001E-01
 cg2d: Sum(rhs),rhsMax =  -6.01082824806292E-03  2.09031328606600E-01
 cg2d: Sum(rhs),rhsMax =  -6.01161974542464E-03  2.09038072681562E-01
 cg2d: Sum(rhs),rhsMax =  -6.01241136866473E-03  2.09044814264330E-01
 cg2d: Sum(rhs),rhsMax =  -6.01320311318032E-03  2.09051553351623E-01
 cg2d: Sum(rhs),rhsMax =  -6.01399497237147E-03  2.09058289942283E-01
 cg2d: Sum(rhs),rhsMax =  -6.01478694154144E-03  2.09065024034602E-01
 cg2d: Sum(rhs),rhsMax =  -6.01557901697598E-03  2.09071755627463E-01
 cg2d: Sum(rhs),rhsMax =  -6.01637119586434E-03  2.09078484719612E-01
 cg2d: Sum(rhs),rhsMax =  -6.01716347630489E-03  2.09085211309638E-01
 cg2d: Sum(rhs),rhsMax =  -6.01795585522545E-03  2.09091935395913E-01
 cg2d: Sum(rhs),rhsMax =  -6.01874833005478E-03  2.09098656976715E-01
 cg2d: Sum(rhs),rhsMax =  -6.01954089682027E-03  2.09105376050357E-01
 cg2d: Sum(rhs),rhsMax =  -6.02033355325724E-03  2.09112092615202E-01
 cg2d: Sum(rhs),rhsMax =  -6.02112629554052E-03  2.09118806669674E-01
 cg2d: Sum(rhs),rhsMax =  -6.02191912075330E-03  2.09125518212226E-01
 cg2d: Sum(rhs),rhsMax =  -6.02271202550987E-03  2.09132227241306E-01
 cg2d: Sum(rhs),rhsMax =  -6.02350500727787E-03  2.09138933755363E-01
(PID.TID 0000.0001)      cg2d_init_res =   4.69924632327708E-04
(PID.TID 0000.0001)      cg2d_iters(min,last) =      -1      69
(PID.TID 0000.0001)      cg2d_last_res =   9.93344566806731E-08
(PID.TID 0000.0001) // =======================================================
(PID.TID 0000.0001) // Begin MONITOR dynamic field statistics
(PID.TID 0000.0001) // =======================================================
(PID.TID 0000.0001) %MON time_tsnumber                =                 14688
(PID.TID 0000.0001) %MON time_secondsf                =   1.7625600000000E+07
(PID.TID 0000.0001) %MON dynstat_eta_max              =   3.1736508370912E-01
(PID.TID 0000.0001) %MON dynstat_eta_min              =  -1.0359960063662E-01
(PID.TID 0000.0001) %MON dynstat_eta_mean             =   6.2965502799005E-06
(PID.TID 0000.0001) %MON dynstat_eta_sd               =   1.2399045038037E-01
(PID.TID 0000.0001) %MON dynstat_eta_del2             =   3.2557247419854E-05
(PID.TID 0000.0001) %MON dynstat_uvel_max             =   1.5835239590711E-01
(PID.TID 0000.0001) %MON dynstat_uvel_min             =  -1.2003097403950E-01
(PID.TID 0000.0001) %MON dynstat_uvel_mean            =   1.2179147567686E-09
(PID.TID 0000.0001) %MON dynstat_uvel_sd              =   5.0770504440167E-02
(PID.TID 0000.0001) %MON dynstat_uvel_del2            =   7.2737206086862E-05
(PID.TID 0000.0001) %MON dynstat_vvel_max             =   1.0179947002235E-01
(PID.TID 0000.0001) %MON dynstat_vvel_min             =  -1.2983305155209E-01
(PID.TID 0000.0001) %MON dynstat_vvel_mean            =   1.3108293086257E-07
(PID.TID 0000.0001) %MON dynstat_vvel_sd              =   4.6391583005966E-02
(PID.TID 0000.0001) %MON dynstat_vvel_del2            =   3.8899332220487E-05
(PID.TID 0000.0001) %MON dynstat_wvel_max             =   1.3585252528719E-08
(PID.TID 0000.0001) %MON dynstat_wvel_min             =  -5.7836329890415E-09
(PID.TID 0000.0001) %MON dynstat_wvel_mean            =  -6.6908114604303E-22
(PID.TID 0000.0001) %MON dynstat_wvel_sd              =   4.8251575125129E-09
(PID.TID 0000.0001) %MON dynstat_wvel_del2            =   1.6013117152156E-12
(PID.TID 0000.0001) %MON dynstat_theta_max            =   2.0000000000000E+01
(PID.TID 0000.0001) %MON dynstat_theta_min            =   2.0000000000000E+01
(PID.TID 0000.0001) %MON dynstat_theta_mean           =   2.0000000000000E+01
(PID.TID 0000.0001) %MON dynstat_theta_sd             =   3.8014036363165E-13
(PID.TID 0000.0001) %MON dynstat_theta_del2           =   0.0000000000000E+00
(PID.TID 0000.0001) %MON dynstat_salt_max             =   3.0000000000000E+01
(PID.TID 0000.0001) %MON dynstat_salt_min             =   3.0000000000000E+01
(PID.TID 0000.0001) %MON dynstat_salt_mean            =   2.9999999999999E+01
(PID.TID 0000.0001) %MON dynstat_salt_sd              =   5.5777604757167E-13
(PID.TID 0000.0001) %MON dynstat_salt_del2            =   0.0000000000000E+00
(PID.TID 0000.0001) %MON trAdv_CFL_u_max              =   9.5000282060152E-03
(PID.TID 0000.0001) %MON trAdv_CFL_v_max              =   7.7795697247145E-03
(PID.TID 0000.0001) %MON trAdv_CFL_w_max              =   3.6039241659669E-09
(PID.TID 0000.0001) %MON advcfl_uvel_max              =   9.5011437544267E-03
(PID.TID 0000.0001) %MON advcfl_vvel_max              =   7.7899830931253E-03
(PID.TID 0000.0001) %MON advcfl_wvel_max              =   6.5209212137852E-09
(PID.TID 0000.0001) %MON advcfl_W_hf_max              =   0.0000000000000E+00
(PID.TID 0000.0001) %MON pe_b_mean                    =   1.5761580690148E-05
(PID.TID 0000.0001) %MON ke_max                       =   1.2541881577552E-02
(PID.TID 0000.0001) %MON ke_mean                      =   2.3214240970172E-03
(PID.TID 0000.0001) %MON ke_vol                       =   6.8893493896486E+15
(PID.TID 0000.0001) %MON vort_r_min                   =  -9.9890308368525E-07
(PID.TID 0000.0001) %MON vort_r_max                   =   3.4129864290408E-06
(PID.TID 0000.0001) %MON vort_a_mean                  =   1.0600000000000E-04
(PID.TID 0000.0001) %MON vort_a_sd                    =   3.5685540755346E-06
(PID.TID 0000.0001) %MON vort_p_mean                  =   1.1652272308690E-04
(PID.TID 0000.0001) %MON vort_p_sd                    =   4.1789570362692E-05
(PID.TID 0000.0001) %MON surfExpan_theta_mean         =  -1.3387888328806E-20
(PID.TID 0000.0001) %MON surfExpan_salt_mean          =  -2.0099517112410E-20
(PID.TID 0000.0001) // =======================================================
(PID.TID 0000.0001) // End MONITOR dynamic field statistics
(PID.TID 0000.0001) // =======================================================
 cg2d: Sum(rhs),rhsMax =  -6.02429806208123E-03  2.09145637752830E-01
 cg2d: Sum(rhs),rhsMax =  -6.02509118780001E-03  2.09152339232147E-01
 cg2d: Sum(rhs),rhsMax =  -6.02588438149099E-03  2.09159038191749E-01
 cg2d: Sum(rhs),rhsMax =  -6.02667763994216E-03  2.09165734630093E-01
 cg2d: Sum(rhs),rhsMax =  -6.02747096010525E-03  2.09172428545634E-01
 cg2d: Sum(rhs),rhsMax =  -6.02826433882535E-03  2.09179119936826E-01
 cg2d: Sum(rhs),rhsMax =  -6.02905777375573E-03  2.09185808802125E-01
 cg2d: Sum(rhs),rhsMax =  -6.02985126108227E-03  2.09192495139996E-01
 cg2d: Sum(rhs),rhsMax =  -6.03064479823366E-03  2.09199178948901E-01
 cg2d: Sum(rhs),rhsMax =  -6.03143838267908E-03  2.09205860227303E-01
 cg2d: Sum(rhs),rhsMax =  -6.03223201110441E-03  2.09212538973684E-01
 cg2d: Sum(rhs),rhsMax =  -6.03302568031872E-03  2.09219215186514E-01
 cg2d: Sum(rhs),rhsMax =  -6.03381938837442E-03  2.09225888864272E-01
 cg2d: Sum(rhs),rhsMax =  -6.03461313132286E-03  2.09232560005453E-01
 cg2d: Sum(rhs),rhsMax =  -6.03540690661341E-03  2.09239228608534E-01
 cg2d: Sum(rhs),rhsMax =  -6.03620071176242E-03  2.09245894672011E-01
 cg2d: Sum(rhs),rhsMax =  -6.03699454352169E-03  2.09252558194387E-01
 cg2d: Sum(rhs),rhsMax =  -6.03778839938730E-03  2.09259219174148E-01
 cg2d: Sum(rhs),rhsMax =  -6.03858227585230E-03  2.09265877609807E-01
 cg2d: Sum(rhs),rhsMax =  -6.03937617042762E-03  2.09272533499863E-01
 cg2d: Sum(rhs),rhsMax =  -6.04017008061231E-03  2.09279186842826E-01
 cg2d: Sum(rhs),rhsMax =  -6.04096400365406E-03  2.09285837637214E-01
 cg2d: Sum(rhs),rhsMax =  -6.04175793646572E-03  2.09292485881542E-01
 cg2d: Sum(rhs),rhsMax =  -6.04255187620634E-03  2.09299131574329E-01
 cg2d: Sum(rhs),rhsMax =  -6.04334582008662E-03  2.09305774714103E-01
 cg2d: Sum(rhs),rhsMax =  -6.04413976521522E-03  2.09312415299394E-01
 cg2d: Sum(rhs),rhsMax =  -6.04502867874050E-03  2.09319053648333E-01
 cg2d: Sum(rhs),rhsMax =  -6.04591769870908E-03  2.09325689152273E-01
 cg2d: Sum(rhs),rhsMax =  -6.04680657975765E-03  2.09332322049190E-01
 cg2d: Sum(rhs),rhsMax =  -6.04769539637133E-03  2.09338952398914E-01
 cg2d: Sum(rhs),rhsMax =  -6.04858415790636E-03  2.09345580190737E-01
 cg2d: Sum(rhs),rhsMax =  -6.04947286385410E-03  2.09352205419141E-01
 cg2d: Sum(rhs),rhsMax =  -6.05036150974357E-03  2.09358828081975E-01
 cg2d: Sum(rhs),rhsMax =  -6.05125009077002E-03  2.09365448177720E-01
 cg2d: Sum(rhs),rhsMax =  -6.05213860378177E-03  2.09372065705186E-01
 cg2d: Sum(rhs),rhsMax =  -6.05302704598894E-03  2.09378680663413E-01
 cg2d: Sum(rhs),rhsMax =  -6.05391541603899E-03  2.09385293051376E-01
 cg2d: Sum(rhs),rhsMax =  -6.05480371266876E-03  2.09391902867822E-01
 cg2d: Sum(rhs),rhsMax =  -6.05569193405005E-03  2.09398510111248E-01
 cg2d: Sum(rhs),rhsMax =  -6.05658007847070E-03  2.09405114780089E-01
 cg2d: Sum(rhs),rhsMax =  -6.05746814363904E-03  2.09411716872807E-01
 cg2d: Sum(rhs),rhsMax =  -6.05835612751475E-03  2.09418316387939E-01
 cg2d: Sum(rhs),rhsMax =  -6.05924402785923E-03  2.09424913324092E-01
 cg2d: Sum(rhs),rhsMax =  -6.06013184278478E-03  2.09431507679904E-01
 cg2d: Sum(rhs),rhsMax =  -6.06101957000591E-03  2.09438099454005E-01
 cg2d: Sum(rhs),rhsMax =  -6.06190720765557E-03  2.09444688645007E-01
 cg2d: Sum(rhs),rhsMax =  -6.06279475446243E-03  2.09451275251532E-01
 cg2d: Sum(rhs),rhsMax =  -6.06368220763562E-03  2.09457859272175E-01
 cg2d: Sum(rhs),rhsMax =  -6.06456956564616E-03  2.09464440705563E-01
 cg2d: Sum(rhs),rhsMax =  -6.06545682603309E-03  2.09471019550303E-01
 cg2d: Sum(rhs),rhsMax =  -6.06634398732854E-03  2.09477595805027E-01
 cg2d: Sum(rhs),rhsMax =  -6.06723104707891E-03  2.09484169468372E-01
 cg2d: Sum(rhs),rhsMax =  -6.06811800388315E-03  2.09490740538966E-01
 cg2d: Sum(rhs),rhsMax =  -6.06900485523409E-03  2.09497309015448E-01
 cg2d: Sum(rhs),rhsMax =  -6.06989159949458E-03  2.09503874896464E-01
 cg2d: Sum(rhs),rhsMax =  -6.07077823500037E-03  2.09510438180655E-01
 cg2d: Sum(rhs),rhsMax =  -6.07166475919855E-03  2.09516998866675E-01
 cg2d: Sum(rhs),rhsMax =  -6.07255117030963E-03  2.09523556953172E-01
 cg2d: Sum(rhs),rhsMax =  -6.07343746654367E-03  2.09530112438815E-01
 cg2d: Sum(rhs),rhsMax =  -6.07432364585147E-03  2.09536665322257E-01
 cg2d: Sum(rhs),rhsMax =  -6.07520970597901E-03  2.09543215602172E-01
 cg2d: Sum(rhs),rhsMax =  -6.07609564559366E-03  2.09549763277228E-01
 cg2d: Sum(rhs),rhsMax =  -6.07698146259726E-03  2.09556308346101E-01
 cg2d: Sum(rhs),rhsMax =  -6.07786715461747E-03  2.09562850807471E-01
 cg2d: Sum(rhs),rhsMax =  -6.07875272026905E-03  2.09569390660022E-01
 cg2d: Sum(rhs),rhsMax =  -6.07963815755403E-03  2.09575927902438E-01
 cg2d: Sum(rhs),rhsMax =  -6.08052346411167E-03  2.09582462533414E-01
 cg2d: Sum(rhs),rhsMax =  -6.08140863845092E-03  2.09588994551644E-01
 cg2d: Sum(rhs),rhsMax =  -6.08229367841214E-03  2.09595523955826E-01
 cg2d: Sum(rhs),rhsMax =  -6.08317858211253E-03  2.09602050744675E-01
 cg2d: Sum(rhs),rhsMax =  -6.08406334732441E-03  2.09608574916882E-01
 cg2d: Sum(rhs),rhsMax =  -6.08494797289705E-03  2.09615096471172E-01
(PID.TID 0000.0001)      cg2d_init_res =   4.64738621818151E-04
(PID.TID 0000.0001)      cg2d_iters(min,last) =      -1      68
(PID.TID 0000.0001)      cg2d_last_res =   9.84911662861410E-08
(PID.TID 0000.0001) // =======================================================
(PID.TID 0000.0001) // Begin MONITOR dynamic field statistics
(PID.TID 0000.0001) // =======================================================
(PID.TID 0000.0001) %MON time_tsnumber                =                 14760
(PID.TID 0000.0001) %MON time_secondsf                =   1.7712000000000E+07
(PID.TID 0000.0001) %MON dynstat_eta_max              =   3.1853041773532E-01
(PID.TID 0000.0001) %MON dynstat_eta_min              =  -1.0378950526362E-01
(PID.TID 0000.0001) %MON dynstat_eta_mean             =   6.3753417382218E-06
(PID.TID 0000.0001) %MON dynstat_eta_sd               =   1.2438378360628E-01
(PID.TID 0000.0001) %MON dynstat_eta_del2             =   3.2644060756135E-05
(PID.TID 0000.0001) %MON dynstat_uvel_max             =   1.5878729458488E-01
(PID.TID 0000.0001) %MON dynstat_uvel_min             =  -1.2048995193456E-01
(PID.TID 0000.0001) %MON dynstat_uvel_mean            =   6.2650559195672E-09
(PID.TID 0000.0001) %MON dynstat_uvel_sd              =   5.0932380880984E-02
(PID.TID 0000.0001) %MON dynstat_uvel_del2            =   7.2880133048752E-05
(PID.TID 0000.0001) %MON dynstat_vvel_max             =   1.0227350983588E-01
(PID.TID 0000.0001) %MON dynstat_vvel_min             =  -1.3016380961615E-01
(PID.TID 0000.0001) %MON dynstat_vvel_mean            =   1.3132086648351E-07
(PID.TID 0000.0001) %MON dynstat_vvel_sd              =   4.6533438658809E-02
(PID.TID 0000.0001) %MON dynstat_vvel_del2            =   3.8769930525197E-05
(PID.TID 0000.0001) %MON dynstat_wvel_max             =   1.3563970253163E-08
(PID.TID 0000.0001) %MON dynstat_wvel_min             =  -5.7053364074090E-09
(PID.TID 0000.0001) %MON dynstat_wvel_mean            =   4.5934166337247E-21
(PID.TID 0000.0001) %MON dynstat_wvel_sd              =   4.8253086633349E-09
(PID.TID 0000.0001) %MON dynstat_wvel_del2            =   1.5817574833357E-12
(PID.TID 0000.0001) %MON dynstat_theta_max            =   2.0000000000000E+01
(PID.TID 0000.0001) %MON dynstat_theta_min            =   2.0000000000000E+01
(PID.TID 0000.0001) %MON dynstat_theta_mean           =   2.0000000000000E+01
(PID.TID 0000.0001) %MON dynstat_theta_sd             =   3.8014036363165E-13
(PID.TID 0000.0001) %MON dynstat_theta_del2           =   0.0000000000000E+00
(PID.TID 0000.0001) %MON dynstat_salt_max             =   3.0000000000000E+01
(PID.TID 0000.0001) %MON dynstat_salt_min             =   3.0000000000000E+01
(PID.TID 0000.0001) %MON dynstat_salt_mean            =   2.9999999999999E+01
(PID.TID 0000.0001) %MON dynstat_salt_sd              =   5.5777604757167E-13
(PID.TID 0000.0001) %MON dynstat_salt_del2            =   0.0000000000000E+00
(PID.TID 0000.0001) %MON trAdv_CFL_u_max              =   9.5261247984497E-03
(PID.TID 0000.0001) %MON trAdv_CFL_v_max              =   7.7993778607393E-03
(PID.TID 0000.0001) %MON trAdv_CFL_w_max              =   3.5982676446669E-09
(PID.TID 0000.0001) %MON advcfl_uvel_max              =   9.5272376750931E-03
(PID.TID 0000.0001) %MON advcfl_vvel_max              =   7.8098285769693E-03
(PID.TID 0000.0001) %MON advcfl_wvel_max              =   6.5107057215180E-09
(PID.TID 0000.0001) %MON advcfl_W_hf_max              =   0.0000000000000E+00
(PID.TID 0000.0001) %MON pe_b_mean                    =   1.5861739803794E-05
(PID.TID 0000.0001) %MON ke_max                       =   1.2610832966774E-02
(PID.TID 0000.0001) %MON ke_mean                      =   2.3359741498978E-03
(PID.TID 0000.0001) %MON ke_vol                       =   6.8893493896486E+15
(PID.TID 0000.0001) %MON vort_r_min                   =  -9.9945999138570E-07
(PID.TID 0000.0001) %MON vort_r_max                   =   3.4218871247213E-06
(PID.TID 0000.0001) %MON vort_a_mean                  =   1.0600000000000E-04
(PID.TID 0000.0001) %MON vort_a_sd                    =   3.5687726229926E-06
(PID.TID 0000.0001) %MON vort_p_mean                  =   1.1652272308690E-04
(PID.TID 0000.0001) %MON vort_p_sd                    =   4.1789663934779E-05
(PID.TID 0000.0001) %MON surfExpan_theta_mean         =   9.1855491114580E-20
(PID.TID 0000.0001) %MON surfExpan_salt_mean          =   1.3777313117518E-19
(PID.TID 0000.0001) // =======================================================
(PID.TID 0000.0001) // End MONITOR dynamic field statistics
(PID.TID 0000.0001) // =======================================================
 cg2d: Sum(rhs),rhsMax =  -6.08583245650136E-03  2.09621615406259E-01
 cg2d: Sum(rhs),rhsMax =  -6.08671679560354E-03  2.09628131720865E-01
 cg2d: Sum(rhs),rhsMax =  -6.08760098942040E-03  2.09634645413715E-01
 cg2d: Sum(rhs),rhsMax =  -6.08848503523794E-03  2.09641156483538E-01
 cg2d: Sum(rhs),rhsMax =  -6.08936893132268E-03  2.09647664929067E-01
 cg2d: Sum(rhs),rhsMax =  -6.09025267569200E-03  2.09654170749041E-01
 cg2d: Sum(rhs),rhsMax =  -6.09113626675648E-03  2.09660673942201E-01
 cg2d: Sum(rhs),rhsMax =  -6.09201970185685E-03  2.09667174507299E-01
 cg2d: Sum(rhs),rhsMax =  -6.09290297990965E-03  2.09673672443078E-01
 cg2d: Sum(rhs),rhsMax =  -6.09378609857143E-03  2.09680167748299E-01
 cg2d: Sum(rhs),rhsMax =  -6.09466905649372E-03  2.09686660421720E-01
 cg2d: Sum(rhs),rhsMax =  -6.09555185074636E-03  2.09693150462102E-01
 cg2d: Sum(rhs),rhsMax =  -6.09643448017847E-03  2.09699637868223E-01
 cg2d: Sum(rhs),rhsMax =  -6.09731694261280E-03  2.09706122638844E-01
 cg2d: Sum(rhs),rhsMax =  -6.09819923587486E-03  2.09712604772747E-01
 cg2d: Sum(rhs),rhsMax =  -6.09908135833986E-03  2.09719084268709E-01
 cg2d: Sum(rhs),rhsMax =  -6.09996330820461E-03  2.09725561125530E-01
 cg2d: Sum(rhs),rhsMax =  -6.10084508357395E-03  2.09732035341976E-01
 cg2d: Sum(rhs),rhsMax =  -6.10172668208703E-03  2.09738506916864E-01
 cg2d: Sum(rhs),rhsMax =  -6.10260810212692E-03  2.09744975848979E-01
 cg2d: Sum(rhs),rhsMax =  -6.10348934171876E-03  2.09751442137134E-01
 cg2d: Sum(rhs),rhsMax =  -6.10437039867206E-03  2.09757905780127E-01
 cg2d: Sum(rhs),rhsMax =  -6.10525127208407E-03  2.09764366776777E-01
 cg2d: Sum(rhs),rhsMax =  -6.10613195869551E-03  2.09770825125900E-01
 cg2d: Sum(rhs),rhsMax =  -6.10701245729842E-03  2.09777280826314E-01
 cg2d: Sum(rhs),rhsMax =  -6.10789276592198E-03  2.09783733876843E-01
 cg2d: Sum(rhs),rhsMax =  -6.10877288247443E-03  2.09790184276318E-01
 cg2d: Sum(rhs),rhsMax =  -6.10965280508092E-03  2.09796632023581E-01
 cg2d: Sum(rhs),rhsMax =  -6.11053253183056E-03  2.09803077117461E-01
 cg2d: Sum(rhs),rhsMax =  -6.11141206064680E-03  2.09809519556803E-01
 cg2d: Sum(rhs),rhsMax =  -6.11229138963686E-03  2.09815959340458E-01
 cg2d: Sum(rhs),rhsMax =  -6.11317051693077E-03  2.09822396467278E-01
 cg2d: Sum(rhs),rhsMax =  -6.11404944064628E-03  2.09828830936119E-01
 cg2d: Sum(rhs),rhsMax =  -6.11492815863446E-03  2.09835262745843E-01
 cg2d: Sum(rhs),rhsMax =  -6.11580666901656E-03  2.09841691895307E-01
 cg2d: Sum(rhs),rhsMax =  -6.11668496995773E-03  2.09848118383398E-01
 cg2d: Sum(rhs),rhsMax =  -6.11756305926122E-03  2.09854542208978E-01
 cg2d: Sum(rhs),rhsMax =  -6.11844093472353E-03  2.09860963370934E-01
 cg2d: Sum(rhs),rhsMax =  -6.11931859524641E-03  2.09867381868147E-01
 cg2d: Sum(rhs),rhsMax =  -6.12019603777647E-03  2.09873797699504E-01
 cg2d: Sum(rhs),rhsMax =  -6.12107326096634E-03  2.09880210863897E-01
 cg2d: Sum(rhs),rhsMax =  -6.12195026319372E-03  2.09886621360232E-01
 cg2d: Sum(rhs),rhsMax =  -6.12282704176160E-03  2.09893029187402E-01
 cg2d: Sum(rhs),rhsMax =  -6.12370359481977E-03  2.09899434344324E-01
 cg2d: Sum(rhs),rhsMax =  -6.12457992046516E-03  2.09905836829899E-01
 cg2d: Sum(rhs),rhsMax =  -6.12545601680838E-03  2.09912236643054E-01
 cg2d: Sum(rhs),rhsMax =  -6.12633188204308E-03  2.09918633782696E-01
 cg2d: Sum(rhs),rhsMax =  -6.12720751346511E-03  2.09925028247769E-01
 cg2d: Sum(rhs),rhsMax =  -6.12808290952000E-03  2.09931420037188E-01
 cg2d: Sum(rhs),rhsMax =  -6.12895806844522E-03  2.09937809149895E-01
 cg2d: Sum(rhs),rhsMax =  -6.12983298776781E-03  2.09944195584827E-01
 cg2d: Sum(rhs),rhsMax =  -6.13070766533836E-03  2.09950579340931E-01
 cg2d: Sum(rhs),rhsMax =  -6.13158209983031E-03  2.09956960417157E-01
 cg2d: Sum(rhs),rhsMax =  -6.13245628904121E-03  2.09963338812456E-01
 cg2d: Sum(rhs),rhsMax =  -6.13333023011674E-03  2.09969714525786E-01
 cg2d: Sum(rhs),rhsMax =  -6.13420392184700E-03  2.09976087556109E-01
 cg2d: Sum(rhs),rhsMax =  -6.13507736197246E-03  2.09982457902400E-01
 cg2d: Sum(rhs),rhsMax =  -6.13595054829825E-03  2.09988825563626E-01
 cg2d: Sum(rhs),rhsMax =  -6.13682347867980E-03  2.09995190538764E-01
 cg2d: Sum(rhs),rhsMax =  -6.13769615143890E-03  2.10001552826804E-01
 cg2d: Sum(rhs),rhsMax =  -6.13856856406850E-03  2.10007912426719E-01
 cg2d: Sum(rhs),rhsMax =  -6.13944071447713E-03  2.10014269337514E-01
 cg2d: Sum(rhs),rhsMax =  -6.14031260135827E-03  2.10020623558182E-01
 cg2d: Sum(rhs),rhsMax =  -6.14118422140570E-03  2.10026975087717E-01
 cg2d: Sum(rhs),rhsMax =  -6.14205557326193E-03  2.10033323925135E-01
 cg2d: Sum(rhs),rhsMax =  -6.14292665524474E-03  2.10039670069445E-01
 cg2d: Sum(rhs),rhsMax =  -6.14379746438122E-03  2.10046013519657E-01
 cg2d: Sum(rhs),rhsMax =  -6.14466799879433E-03  2.10052354274803E-01
 cg2d: Sum(rhs),rhsMax =  -6.14553825658519E-03  2.10058692333897E-01
 cg2d: Sum(rhs),rhsMax =  -6.14640823527451E-03  2.10065027695973E-01
 cg2d: Sum(rhs),rhsMax =  -6.14727793273938E-03  2.10071360360070E-01
 cg2d: Sum(rhs),rhsMax =  -6.14814734758060E-03  2.10077690325225E-01
(PID.TID 0000.0001)      cg2d_init_res =   4.59562790212591E-04
(PID.TID 0000.0001)      cg2d_iters(min,last) =      -1      68
(PID.TID 0000.0001)      cg2d_last_res =   9.65075058378641E-08
(PID.TID 0000.0001) // =======================================================
(PID.TID 0000.0001) // Begin MONITOR dynamic field statistics
(PID.TID 0000.0001) // =======================================================
(PID.TID 0000.0001) %MON time_tsnumber                =                 14832
(PID.TID 0000.0001) %MON time_secondsf                =   1.7798400000000E+07
(PID.TID 0000.0001) %MON dynstat_eta_max              =   3.1969592211467E-01
(PID.TID 0000.0001) %MON dynstat_eta_min              =  -1.0398248501299E-01
(PID.TID 0000.0001) %MON dynstat_eta_mean             =   6.4557407955623E-06
(PID.TID 0000.0001) %MON dynstat_eta_sd               =   1.2477670042952E-01
(PID.TID 0000.0001) %MON dynstat_eta_del2             =   3.2729823982968E-05
(PID.TID 0000.0001) %MON dynstat_uvel_max             =   1.5921610296888E-01
(PID.TID 0000.0001) %MON dynstat_uvel_min             =  -1.2095274278534E-01
(PID.TID 0000.0001) %MON dynstat_uvel_mean            =   1.1905534868241E-08
(PID.TID 0000.0001) %MON dynstat_uvel_sd              =   5.1095637830349E-02
(PID.TID 0000.0001) %MON dynstat_uvel_del2            =   7.3018906087390E-05
(PID.TID 0000.0001) %MON dynstat_vvel_max             =   1.0274789024611E-01
(PID.TID 0000.0001) %MON dynstat_vvel_min             =  -1.3050900349948E-01
(PID.TID 0000.0001) %MON dynstat_vvel_mean            =   1.3086274570057E-07
(PID.TID 0000.0001) %MON dynstat_vvel_sd              =   4.6672801838224E-02
(PID.TID 0000.0001) %MON dynstat_vvel_del2            =   3.8640606145788E-05
(PID.TID 0000.0001) %MON dynstat_wvel_max             =   1.3559223642292E-08
(PID.TID 0000.0001) %MON dynstat_wvel_min             =  -5.6037289940286E-09
(PID.TID 0000.0001) %MON dynstat_wvel_mean            =  -6.9435181002417E-21
(PID.TID 0000.0001) %MON dynstat_wvel_sd              =   4.8255087329127E-09
(PID.TID 0000.0001) %MON dynstat_wvel_del2            =   1.5655517835848E-12
(PID.TID 0000.0001) %MON dynstat_theta_max            =   2.0000000000000E+01
(PID.TID 0000.0001) %MON dynstat_theta_min            =   2.0000000000000E+01
(PID.TID 0000.0001) %MON dynstat_theta_mean           =   2.0000000000000E+01
(PID.TID 0000.0001) %MON dynstat_theta_sd             =   3.8014036363165E-13
(PID.TID 0000.0001) %MON dynstat_theta_del2           =   0.0000000000000E+00
(PID.TID 0000.0001) %MON dynstat_salt_max             =   3.0000000000000E+01
(PID.TID 0000.0001) %MON dynstat_salt_min             =   3.0000000000000E+01
(PID.TID 0000.0001) %MON dynstat_salt_mean            =   2.9999999999999E+01
(PID.TID 0000.0001) %MON dynstat_salt_sd              =   5.5777604757167E-13
(PID.TID 0000.0001) %MON dynstat_salt_del2            =   0.0000000000000E+00
(PID.TID 0000.0001) %MON trAdv_CFL_u_max              =   9.5518566715049E-03
(PID.TID 0000.0001) %MON trAdv_CFL_v_max              =   7.8200500606586E-03
(PID.TID 0000.0001) %MON trAdv_CFL_w_max              =   3.5961277490711E-09
(PID.TID 0000.0001) %MON advcfl_uvel_max              =   9.5529661781329E-03
(PID.TID 0000.0001) %MON advcfl_vvel_max              =   7.8305402099690E-03
(PID.TID 0000.0001) %MON advcfl_wvel_max              =   6.5084273483000E-09
(PID.TID 0000.0001) %MON advcfl_W_hf_max              =   0.0000000000000E+00
(PID.TID 0000.0001) %MON pe_b_mean                    =   1.5962109610562E-05
(PID.TID 0000.0001) %MON ke_max                       =   1.2679597256237E-02
(PID.TID 0000.0001) %MON ke_mean                      =   2.3505247232244E-03
(PID.TID 0000.0001) %MON ke_vol                       =   6.8893493896486E+15
(PID.TID 0000.0001) %MON vort_r_min                   =  -9.9980258836357E-07
(PID.TID 0000.0001) %MON vort_r_max                   =   3.4306378652620E-06
(PID.TID 0000.0001) %MON vort_a_mean                  =   1.0600000000000E-04
(PID.TID 0000.0001) %MON vort_a_sd                    =   3.5689880046502E-06
(PID.TID 0000.0001) %MON vort_p_mean                  =   1.1652272308690E-04
(PID.TID 0000.0001) %MON vort_p_sd                    =   4.1789758704646E-05
(PID.TID 0000.0001) %MON surfExpan_theta_mean         =  -1.3882299754187E-19
(PID.TID 0000.0001) %MON surfExpan_salt_mean          =  -2.0822375922257E-19
(PID.TID 0000.0001) // =======================================================
(PID.TID 0000.0001) // End MONITOR dynamic field statistics
(PID.TID 0000.0001) // =======================================================
 cg2d: Sum(rhs),rhsMax =  -6.14901647668345E-03  2.10084017590484E-01
 cg2d: Sum(rhs),rhsMax =  -6.14988531820612E-03  2.10090342154895E-01
 cg2d: Sum(rhs),rhsMax =  -6.15075386983992E-03  2.10096664017518E-01
 cg2d: Sum(rhs),rhsMax =  -6.15162212989834E-03  2.10102983177403E-01
 cg2d: Sum(rhs),rhsMax =  -6.15249009614997E-03  2.10109299633627E-01
 cg2d: Sum(rhs),rhsMax =  -6.15335776582653E-03  2.10115613385252E-01
 cg2d: Sum(rhs),rhsMax =  -6.15422513723378E-03  2.10121924431352E-01
 cg2d: Sum(rhs),rhsMax =  -6.15509220757150E-03  2.10128232771010E-01
 cg2d: Sum(rhs),rhsMax =  -6.15595897523104E-03  2.10134538403310E-01
 cg2d: Sum(rhs),rhsMax =  -6.15682543795718E-03  2.10140841327339E-01
 cg2d: Sum(rhs),rhsMax =  -6.15769159301899E-03  2.10147141542195E-01
 cg2d: Sum(rhs),rhsMax =  -6.15855743855579E-03  2.10153439046979E-01
 cg2d: Sum(rhs),rhsMax =  -6.15942297206419E-03  2.10159733840786E-01
 cg2d: Sum(rhs),rhsMax =  -6.16028819141816E-03  2.10166025922732E-01
 cg2d: Sum(rhs),rhsMax =  -6.16115309448064E-03  2.10172315291937E-01
 cg2d: Sum(rhs),rhsMax =  -6.16201767890094E-03  2.10178601947508E-01
 cg2d: Sum(rhs),rhsMax =  -6.16288194240854E-03  2.10184885888578E-01
 cg2d: Sum(rhs),rhsMax =  -6.16374588228530E-03  2.10191167114274E-01
 cg2d: Sum(rhs),rhsMax =  -6.16460949622845E-03  2.10197445623726E-01
 cg2d: Sum(rhs),rhsMax =  -6.16547278321264E-03  2.10203721416084E-01
 cg2d: Sum(rhs),rhsMax =  -6.16633573918186E-03  2.10209994490490E-01
 cg2d: Sum(rhs),rhsMax =  -6.16719836261930E-03  2.10216264846083E-01
 cg2d: Sum(rhs),rhsMax =  -6.16806065160435E-03  2.10222532482028E-01
 cg2d: Sum(rhs),rhsMax =  -6.16892260309436E-03  2.10228797397488E-01
 cg2d: Sum(rhs),rhsMax =  -6.16978421498873E-03  2.10235059591618E-01
 cg2d: Sum(rhs),rhsMax =  -6.17064548459704E-03  2.10241319063594E-01
 cg2d: Sum(rhs),rhsMax =  -6.17150640988536E-03  2.10247575812590E-01
 cg2d: Sum(rhs),rhsMax =  -6.17236698816662E-03  2.10253829837787E-01
 cg2d: Sum(rhs),rhsMax =  -6.17322721783578E-03  2.10260081138365E-01
 cg2d: Sum(rhs),rhsMax =  -6.17408709500687E-03  2.10266329713528E-01
 cg2d: Sum(rhs),rhsMax =  -6.17494661819652E-03  2.10272575562454E-01
 cg2d: Sum(rhs),rhsMax =  -6.17580578494959E-03  2.10278818684361E-01
 cg2d: Sum(rhs),rhsMax =  -6.17666459223761E-03  2.10285059078443E-01
 cg2d: Sum(rhs),rhsMax =  -6.17752303847237E-03  2.10291296743918E-01
 cg2d: Sum(rhs),rhsMax =  -6.17838112049982E-03  2.10297531680003E-01
 cg2d: Sum(rhs),rhsMax =  -6.17923883595871E-03  2.10303763885914E-01
 cg2d: Sum(rhs),rhsMax =  -6.18009618250484E-03  2.10309993360882E-01
 cg2d: Sum(rhs),rhsMax =  -6.18095315762685E-03  2.10316220104140E-01
 cg2d: Sum(rhs),rhsMax =  -6.18180975870444E-03  2.10322444114921E-01
 cg2d: Sum(rhs),rhsMax =  -6.18266598327187E-03  2.10328665392469E-01
 cg2d: Sum(rhs),rhsMax =  -6.18352182863001E-03  2.10334883936035E-01
 cg2d: Sum(rhs),rhsMax =  -6.18437729277442E-03  2.10341099744872E-01
 cg2d: Sum(rhs),rhsMax =  -6.18523237210957E-03  2.10347312818236E-01
 cg2d: Sum(rhs),rhsMax =  -6.18608706502805E-03  2.10353523155391E-01
 cg2d: Sum(rhs),rhsMax =  -6.18694136835181E-03  2.10359730755604E-01
 cg2d: Sum(rhs),rhsMax =  -6.18779527950724E-03  2.10365935618154E-01
 cg2d: Sum(rhs),rhsMax =  -6.18864879603533E-03  2.10372137742321E-01
 cg2d: Sum(rhs),rhsMax =  -6.18950191528213E-03  2.10378337127379E-01
 cg2d: Sum(rhs),rhsMax =  -6.19035463474396E-03  2.10384533772629E-01
 cg2d: Sum(rhs),rhsMax =  -6.19120695118826E-03  2.10390727677364E-01
 cg2d: Sum(rhs),rhsMax =  -6.19205886271796E-03  2.10396918840886E-01
 cg2d: Sum(rhs),rhsMax =  -6.19291036623795E-03  2.10403107262498E-01
 cg2d: Sum(rhs),rhsMax =  -6.19376145860850E-03  2.10409292941510E-01
 cg2d: Sum(rhs),rhsMax =  -6.19461213791983E-03  2.10415475877248E-01
 cg2d: Sum(rhs),rhsMax =  -6.19546240119347E-03  2.10421656069020E-01
 cg2d: Sum(rhs),rhsMax =  -6.19631224530771E-03  2.10427833516161E-01
 cg2d: Sum(rhs),rhsMax =  -6.19716166804946E-03  2.10434008218009E-01
 cg2d: Sum(rhs),rhsMax =  -6.19801066635822E-03  2.10440180173896E-01
 cg2d: Sum(rhs),rhsMax =  -6.19885923735195E-03  2.10446349383166E-01
 cg2d: Sum(rhs),rhsMax =  -6.19970737844631E-03  2.10452515845168E-01
 cg2d: Sum(rhs),rhsMax =  -6.20055508664267E-03  2.10458679559265E-01
 cg2d: Sum(rhs),rhsMax =  -6.20140235927590E-03  2.10464840524800E-01
 cg2d: Sum(rhs),rhsMax =  -6.20224919390898E-03  2.10470998741153E-01
 cg2d: Sum(rhs),rhsMax =  -6.20309558683332E-03  2.10477154207690E-01
 cg2d: Sum(rhs),rhsMax =  -6.20394153582344E-03  2.10483306923785E-01
 cg2d: Sum(rhs),rhsMax =  -6.20478703758233E-03  2.10489456888824E-01
 cg2d: Sum(rhs),rhsMax =  -6.20563208952211E-03  2.10495604102191E-01
 cg2d: Sum(rhs),rhsMax =  -6.20647668846298E-03  2.10501748563280E-01
 cg2d: Sum(rhs),rhsMax =  -6.20732083186558E-03  2.10507890271490E-01
 cg2d: Sum(rhs),rhsMax =  -6.20816451689149E-03  2.10514029226224E-01
 cg2d: Sum(rhs),rhsMax =  -6.20900773978649E-03  2.10520165426889E-01
 cg2d: Sum(rhs),rhsMax =  -6.20985049847955E-03  2.10526298872905E-01
(PID.TID 0000.0001)      cg2d_init_res =   4.54373494012784E-04
(PID.TID 0000.0001)      cg2d_iters(min,last) =      -1      68
(PID.TID 0000.0001)      cg2d_last_res =   9.51135364471307E-08
(PID.TID 0000.0001) // =======================================================
(PID.TID 0000.0001) // Begin MONITOR dynamic field statistics
(PID.TID 0000.0001) // =======================================================
(PID.TID 0000.0001) %MON time_tsnumber                =                 14904
(PID.TID 0000.0001) %MON time_secondsf                =   1.7884800000000E+07
(PID.TID 0000.0001) %MON dynstat_eta_max              =   3.2086160882927E-01
(PID.TID 0000.0001) %MON dynstat_eta_min              =  -1.0418010060778E-01
(PID.TID 0000.0001) %MON dynstat_eta_mean             =   6.5344112466824E-06
(PID.TID 0000.0001) %MON dynstat_eta_sd               =   1.2516919905469E-01
(PID.TID 0000.0001) %MON dynstat_eta_del2             =   3.2814525815370E-05
(PID.TID 0000.0001) %MON dynstat_uvel_max             =   1.5963803276497E-01
(PID.TID 0000.0001) %MON dynstat_uvel_min             =  -1.2141849342419E-01
(PID.TID 0000.0001) %MON dynstat_uvel_mean            =   1.7937277689123E-08
(PID.TID 0000.0001) %MON dynstat_uvel_sd              =   5.1260043308778E-02
(PID.TID 0000.0001) %MON dynstat_uvel_del2            =   7.3153121991255E-05
(PID.TID 0000.0001) %MON dynstat_vvel_max             =   1.0322112823488E-01
(PID.TID 0000.0001) %MON dynstat_vvel_min             =  -1.3086960955937E-01
(PID.TID 0000.0001) %MON dynstat_vvel_mean            =   1.2958735240930E-07
(PID.TID 0000.0001) %MON dynstat_vvel_sd              =   4.6810009255078E-02
(PID.TID 0000.0001) %MON dynstat_vvel_del2            =   3.8512183462073E-05
(PID.TID 0000.0001) %MON dynstat_wvel_max             =   1.3561344143529E-08
(PID.TID 0000.0001) %MON dynstat_wvel_min             =  -5.4928843228845E-09
(PID.TID 0000.0001) %MON dynstat_wvel_mean            =   8.7041003856333E-21
(PID.TID 0000.0001) %MON dynstat_wvel_sd              =   4.8256748896176E-09
(PID.TID 0000.0001) %MON dynstat_wvel_del2            =   1.5499755586219E-12
(PID.TID 0000.0001) %MON dynstat_theta_max            =   2.0000000000000E+01
(PID.TID 0000.0001) %MON dynstat_theta_min            =   2.0000000000000E+01
(PID.TID 0000.0001) %MON dynstat_theta_mean           =   2.0000000000000E+01
(PID.TID 0000.0001) %MON dynstat_theta_sd             =   3.8014036363165E-13
(PID.TID 0000.0001) %MON dynstat_theta_del2           =   0.0000000000000E+00
(PID.TID 0000.0001) %MON dynstat_salt_max             =   3.0000000000000E+01
(PID.TID 0000.0001) %MON dynstat_salt_min             =   3.0000000000000E+01
(PID.TID 0000.0001) %MON dynstat_salt_mean            =   2.9999999999999E+01
(PID.TID 0000.0001) %MON dynstat_salt_sd              =   5.5777604757167E-13
(PID.TID 0000.0001) %MON dynstat_salt_del2            =   0.0000000000000E+00
(PID.TID 0000.0001) %MON trAdv_CFL_u_max              =   9.5771765045617E-03
(PID.TID 0000.0001) %MON trAdv_CFL_v_max              =   7.8416451191905E-03
(PID.TID 0000.0001) %MON trAdv_CFL_w_max              =   3.5946736118519E-09
(PID.TID 0000.0001) %MON advcfl_uvel_max              =   9.5782819658981E-03
(PID.TID 0000.0001) %MON advcfl_vvel_max              =   7.8521765735624E-03
(PID.TID 0000.0001) %MON advcfl_wvel_max              =   6.5094451888941E-09
(PID.TID 0000.0001) %MON advcfl_W_hf_max              =   0.0000000000000E+00
(PID.TID 0000.0001) %MON pe_b_mean                    =   1.6062688643166E-05
(PID.TID 0000.0001) %MON ke_max                       =   1.2747487540942E-02
(PID.TID 0000.0001) %MON ke_mean                      =   2.3650792566934E-03
(PID.TID 0000.0001) %MON ke_vol                       =   6.8893493896486E+15
(PID.TID 0000.0001) %MON vort_r_min                   =  -9.9990897370618E-07
(PID.TID 0000.0001) %MON vort_r_max                   =   3.4392242282634E-06
(PID.TID 0000.0001) %MON vort_a_mean                  =   1.0600000000000E-04
(PID.TID 0000.0001) %MON vort_a_sd                    =   3.5692002844812E-06
(PID.TID 0000.0001) %MON vort_p_mean                  =   1.1652272308690E-04
(PID.TID 0000.0001) %MON vort_p_sd                    =   4.1789854158564E-05
(PID.TID 0000.0001) %MON surfExpan_theta_mean         =   1.7407381215485E-19
(PID.TID 0000.0001) %MON surfExpan_salt_mean          =   2.6112840285148E-19
(PID.TID 0000.0001) // =======================================================
(PID.TID 0000.0001) // End MONITOR dynamic field statistics
(PID.TID 0000.0001) // =======================================================
 cg2d: Sum(rhs),rhsMax =  -6.21069278924961E-03  2.10532429563687E-01
 cg2d: Sum(rhs),rhsMax =  -6.21153460977062E-03  2.10538557498661E-01
 cg2d: Sum(rhs),rhsMax =  -6.21237595619988E-03  2.10544682677258E-01
 cg2d: Sum(rhs),rhsMax =  -6.21321682626618E-03  2.10550805098926E-01
 cg2d: Sum(rhs),rhsMax =  -6.21405721645454E-03  2.10556924763089E-01
 cg2d: Sum(rhs),rhsMax =  -6.21489712407195E-03  2.10563041669207E-01
 cg2d: Sum(rhs),rhsMax =  -6.21573654570096E-03  2.10569155816731E-01
 cg2d: Sum(rhs),rhsMax =  -6.21657547888256E-03  2.10575267205117E-01
 cg2d: Sum(rhs),rhsMax =  -6.21741391990749E-03  2.10581375833831E-01
 cg2d: Sum(rhs),rhsMax =  -6.21825186567074E-03  2.10587481702347E-01
 cg2d: Sum(rhs),rhsMax =  -6.21908931344321E-03  2.10593584810136E-01
 cg2d: Sum(rhs),rhsMax =  -6.21992625989377E-03  2.10599685156685E-01
 cg2d: Sum(rhs),rhsMax =  -6.22076270156890E-03  2.10605782741475E-01
 cg2d: Sum(rhs),rhsMax =  -6.22159863552349E-03  2.10611877564000E-01
 cg2d: Sum(rhs),rhsMax =  -6.22243405870345E-03  2.10617969623763E-01
 cg2d: Sum(rhs),rhsMax =  -6.22326896810902E-03  2.10624058920266E-01
 cg2d: Sum(rhs),rhsMax =  -6.22410336000550E-03  2.10630145453011E-01
 cg2d: Sum(rhs),rhsMax =  -6.22493723122171E-03  2.10636229221523E-01
 cg2d: Sum(rhs),rhsMax =  -6.22577057869112E-03  2.10642310225318E-01
 cg2d: Sum(rhs),rhsMax =  -6.22660339936358E-03  2.10648388463928E-01
 cg2d: Sum(rhs),rhsMax =  -6.22743568957264E-03  2.10654463936875E-01
 cg2d: Sum(rhs),rhsMax =  -6.22826744584964E-03  2.10660536643705E-01
 cg2d: Sum(rhs),rhsMax =  -6.22909866527373E-03  2.10666606583965E-01
 cg2d: Sum(rhs),rhsMax =  -6.22992934464030E-03  2.10672673757195E-01
 cg2d: Sum(rhs),rhsMax =  -6.23075947975488E-03  2.10678738162956E-01
 cg2d: Sum(rhs),rhsMax =  -6.23158906843192E-03  2.10684799800808E-01
 cg2d: Sum(rhs),rhsMax =  -6.23241810632171E-03  2.10690858670311E-01
 cg2d: Sum(rhs),rhsMax =  -6.23324659061156E-03  2.10696914771048E-01
 cg2d: Sum(rhs),rhsMax =  -6.23407451759873E-03  2.10702968102596E-01
 cg2d: Sum(rhs),rhsMax =  -6.23490188412886E-03  2.10709018664529E-01
 cg2d: Sum(rhs),rhsMax =  -6.23572868647585E-03  2.10715066456444E-01
 cg2d: Sum(rhs),rhsMax =  -6.23655492088487E-03  2.10721111477936E-01
 cg2d: Sum(rhs),rhsMax =  -6.23738058474828E-03  2.10727153728609E-01
 cg2d: Sum(rhs),rhsMax =  -6.23820567404689E-03  2.10733193208061E-01
 cg2d: Sum(rhs),rhsMax =  -6.23903018536048E-03  2.10739229915910E-01
 cg2d: Sum(rhs),rhsMax =  -6.23985411508262E-03  2.10745263851776E-01
 cg2d: Sum(rhs),rhsMax =  -6.24067745995207E-03  2.10751295015283E-01
 cg2d: Sum(rhs),rhsMax =  -6.24150021656208E-03  2.10757323406057E-01
 cg2d: Sum(rhs),rhsMax =  -6.24232238087791E-03  2.10763349023735E-01
 cg2d: Sum(rhs),rhsMax =  -6.24314394951034E-03  2.10769371867964E-01
 cg2d: Sum(rhs),rhsMax =  -6.24396491870785E-03  2.10775391938388E-01
 cg2d: Sum(rhs),rhsMax =  -6.24478528534081E-03  2.10781409234663E-01
 cg2d: Sum(rhs),rhsMax =  -6.24560504521353E-03  2.10787423756442E-01
 cg2d: Sum(rhs),rhsMax =  -6.24642419492268E-03  2.10793435503397E-01
 cg2d: Sum(rhs),rhsMax =  -6.24724273054221E-03  2.10799444475198E-01
 cg2d: Sum(rhs),rhsMax =  -6.24806064900025E-03  2.10805450671517E-01
 cg2d: Sum(rhs),rhsMax =  -6.24887794618258E-03  2.10811454092043E-01
 cg2d: Sum(rhs),rhsMax =  -6.24969461842836E-03  2.10817454736462E-01
 cg2d: Sum(rhs),rhsMax =  -6.25051066219929E-03  2.10823452604467E-01
 cg2d: Sum(rhs),rhsMax =  -6.25132607375599E-03  2.10829447695763E-01
 cg2d: Sum(rhs),rhsMax =  -6.25214084922674E-03  2.10835440010054E-01
 cg2d: Sum(rhs),rhsMax =  -6.25295498487796E-03  2.10841429547051E-01
 cg2d: Sum(rhs),rhsMax =  -6.25376847661202E-03  2.10847416306474E-01
 cg2d: Sum(rhs),rhsMax =  -6.25458132148399E-03  2.10853400288048E-01
 cg2d: Sum(rhs),rhsMax =  -6.25539351536080E-03  2.10859381491503E-01
 cg2d: Sum(rhs),rhsMax =  -6.25620505425978E-03  2.10865359916573E-01
 cg2d: Sum(rhs),rhsMax =  -6.25701593441607E-03  2.10871335563002E-01
 cg2d: Sum(rhs),rhsMax =  -6.25782615212573E-03  2.10877308430539E-01
 cg2d: Sum(rhs),rhsMax =  -6.25863570356282E-03  2.10883278518940E-01
 cg2d: Sum(rhs),rhsMax =  -6.25944458457094E-03  2.10889245827960E-01
 cg2d: Sum(rhs),rhsMax =  -6.26025279110382E-03  2.10895210357368E-01
 cg2d: Sum(rhs),rhsMax =  -6.26106032006070E-03  2.10901172106936E-01
 cg2d: Sum(rhs),rhsMax =  -6.26186716705909E-03  2.10907131076444E-01
 cg2d: Sum(rhs),rhsMax =  -6.26267332811090E-03  2.10913087265669E-01
 cg2d: Sum(rhs),rhsMax =  -6.26347879907658E-03  2.10919040674412E-01
 cg2d: Sum(rhs),rhsMax =  -6.26428357663340E-03  2.10924991302463E-01
 cg2d: Sum(rhs),rhsMax =  -6.26508765645879E-03  2.10930939149621E-01
 cg2d: Sum(rhs),rhsMax =  -6.26589103442706E-03  2.10936884215702E-01
 cg2d: Sum(rhs),rhsMax =  -6.26669370728760E-03  2.10942826500515E-01
 cg2d: Sum(rhs),rhsMax =  -6.26749567009623E-03  2.10948766003885E-01
 cg2d: Sum(rhs),rhsMax =  -6.26829691992731E-03  2.10954702725635E-01
 cg2d: Sum(rhs),rhsMax =  -6.26909745197549E-03  2.10960636665598E-01
(PID.TID 0000.0001)      cg2d_init_res =   4.49147431939096E-04
(PID.TID 0000.0001)      cg2d_iters(min,last) =      -1      68
(PID.TID 0000.0001)      cg2d_last_res =   9.45802943519596E-08
(PID.TID 0000.0001) // =======================================================
(PID.TID 0000.0001) // Begin MONITOR dynamic field statistics
(PID.TID 0000.0001) // =======================================================
(PID.TID 0000.0001) %MON time_tsnumber                =                 14976
(PID.TID 0000.0001) %MON time_secondsf                =   1.7971200000000E+07
(PID.TID 0000.0001) %MON dynstat_eta_max              =   3.2202743914324E-01
(PID.TID 0000.0001) %MON dynstat_eta_min              =  -1.0438391341642E-01
(PID.TID 0000.0001) %MON dynstat_eta_mean             =   6.6103046586871E-06
(PID.TID 0000.0001) %MON dynstat_eta_sd               =   1.2556126880924E-01
(PID.TID 0000.0001) %MON dynstat_eta_del2             =   3.2898172280728E-05
(PID.TID 0000.0001) %MON dynstat_uvel_max             =   1.6005233515860E-01
(PID.TID 0000.0001) %MON dynstat_uvel_min             =  -1.2188591099594E-01
(PID.TID 0000.0001) %MON dynstat_uvel_mean            =   2.4116478516165E-08
(PID.TID 0000.0001) %MON dynstat_uvel_sd              =   5.1425277167659E-02
(PID.TID 0000.0001) %MON dynstat_uvel_del2            =   7.3282427864353E-05
(PID.TID 0000.0001) %MON dynstat_vvel_max             =   1.0369186979214E-01
(PID.TID 0000.0001) %MON dynstat_vvel_min             =  -1.3124624336385E-01
(PID.TID 0000.0001) %MON dynstat_vvel_mean            =   1.2740903848706E-07
(PID.TID 0000.0001) %MON dynstat_vvel_sd              =   4.6945497854184E-02
(PID.TID 0000.0001) %MON dynstat_vvel_del2            =   3.8385449445585E-05
(PID.TID 0000.0001) %MON dynstat_wvel_max             =   1.3565444219139E-08
(PID.TID 0000.0001) %MON dynstat_wvel_min             =  -5.3660793267773E-09
(PID.TID 0000.0001) %MON dynstat_wvel_mean            =  -3.0213565575347E-21
(PID.TID 0000.0001) %MON dynstat_wvel_sd              =   4.8258040797894E-09
(PID.TID 0000.0001) %MON dynstat_wvel_del2            =   1.5353107765128E-12
(PID.TID 0000.0001) %MON dynstat_theta_max            =   2.0000000000000E+01
(PID.TID 0000.0001) %MON dynstat_theta_min            =   2.0000000000000E+01
(PID.TID 0000.0001) %MON dynstat_theta_mean           =   2.0000000000000E+01
(PID.TID 0000.0001) %MON dynstat_theta_sd             =   3.8014036363165E-13
(PID.TID 0000.0001) %MON dynstat_theta_del2           =   0.0000000000000E+00
(PID.TID 0000.0001) %MON dynstat_salt_max             =   3.0000000000000E+01
(PID.TID 0000.0001) %MON dynstat_salt_min             =   3.0000000000000E+01
(PID.TID 0000.0001) %MON dynstat_salt_mean            =   2.9999999999999E+01
(PID.TID 0000.0001) %MON dynstat_salt_sd              =   5.5777604757167E-13
(PID.TID 0000.0001) %MON dynstat_salt_del2            =   0.0000000000000E+00
(PID.TID 0000.0001) %MON trAdv_CFL_u_max              =   9.6020393333480E-03
(PID.TID 0000.0001) %MON trAdv_CFL_v_max              =   7.8642002317222E-03
(PID.TID 0000.0001) %MON trAdv_CFL_w_max              =   3.5940592097743E-09
(PID.TID 0000.0001) %MON advcfl_uvel_max              =   9.6031401095162E-03
(PID.TID 0000.0001) %MON advcfl_vvel_max              =   7.8747746018308E-03
(PID.TID 0000.0001) %MON advcfl_wvel_max              =   6.5114132251867E-09
(PID.TID 0000.0001) %MON advcfl_W_hf_max              =   0.0000000000000E+00
(PID.TID 0000.0001) %MON pe_b_mean                    =   1.6163473144137E-05
(PID.TID 0000.0001) %MON ke_max                       =   1.2814378371631E-02
(PID.TID 0000.0001) %MON ke_mean                      =   2.3796414095828E-03
(PID.TID 0000.0001) %MON ke_vol                       =   6.8893493896486E+15
(PID.TID 0000.0001) %MON vort_r_min                   =  -9.9976312075199E-07
(PID.TID 0000.0001) %MON vort_r_max                   =   3.4476324749625E-06
(PID.TID 0000.0001) %MON vort_a_mean                  =   1.0600000000000E-04
(PID.TID 0000.0001) %MON vort_a_sd                    =   3.5694095608560E-06
(PID.TID 0000.0001) %MON vort_p_mean                  =   1.1652272308690E-04
(PID.TID 0000.0001) %MON vort_p_sd                    =   4.1789949747059E-05
(PID.TID 0000.0001) %MON surfExpan_theta_mean         =  -6.0418238313610E-20
(PID.TID 0000.0001) %MON surfExpan_salt_mean          =  -9.0621041534986E-20
(PID.TID 0000.0001) // =======================================================
(PID.TID 0000.0001) // End MONITOR dynamic field statistics
(PID.TID 0000.0001) // =======================================================
 cg2d: Sum(rhs),rhsMax =  -6.26989726269050E-03  2.10966567823612E-01
 cg2d: Sum(rhs),rhsMax =  -6.27069634814404E-03  2.10972496199525E-01
 cg2d: Sum(rhs),rhsMax =  -6.27149470359097E-03  2.10978421793185E-01
 cg2d: Sum(rhs),rhsMax =  -6.27229232543982E-03  2.10984344604449E-01
 cg2d: Sum(rhs),rhsMax =  -6.27308920945212E-03  2.10990264633184E-01
 cg2d: Sum(rhs),rhsMax =  -6.27388535210804E-03  2.10996181879255E-01
 cg2d: Sum(rhs),rhsMax =  -6.27468074870459E-03  2.11002096342537E-01
 cg2d: Sum(rhs),rhsMax =  -6.27547539567905E-03  2.11008008022914E-01
 cg2d: Sum(rhs),rhsMax =  -6.27626928851863E-03  2.11013916920274E-01
 cg2d: Sum(rhs),rhsMax =  -6.27706242341374E-03  2.11019823034509E-01
 cg2d: Sum(rhs),rhsMax =  -6.27785479633542E-03  2.11025726365519E-01
 cg2d: Sum(rhs),rhsMax =  -6.27864640247932E-03  2.11031626913214E-01
 cg2d: Sum(rhs),rhsMax =  -6.27943723882265E-03  2.11037524677500E-01
 cg2d: Sum(rhs),rhsMax =  -6.28022730071642E-03  2.11043419658299E-01
 cg2d: Sum(rhs),rhsMax =  -6.28101658377915E-03  2.11049311855539E-01
 cg2d: Sum(rhs),rhsMax =  -6.28180508405645E-03  2.11055201269144E-01
 cg2d: Sum(rhs),rhsMax =  -6.28259279783041E-03  2.11061087899055E-01
 cg2d: Sum(rhs),rhsMax =  -6.28337972050329E-03  2.11066971745213E-01
 cg2d: Sum(rhs),rhsMax =  -6.28416584833426E-03  2.11072852807571E-01
 cg2d: Sum(rhs),rhsMax =  -6.28495117689539E-03  2.11078731086082E-01
 cg2d: Sum(rhs),rhsMax =  -6.28573570193719E-03  2.11084606580709E-01
 cg2d: Sum(rhs),rhsMax =  -6.28651941954697E-03  2.11090479291423E-01
 cg2d: Sum(rhs),rhsMax =  -6.28730232573984E-03  2.11096349218189E-01
 cg2d: Sum(rhs),rhsMax =  -6.28808441619055E-03  2.11102216360999E-01
 cg2d: Sum(rhs),rhsMax =  -6.28886568657940E-03  2.11108080719835E-01
 cg2d: Sum(rhs),rhsMax =  -6.28964613241511E-03  2.11113942294689E-01
 cg2d: Sum(rhs),rhsMax =  -6.29042575000250E-03  2.11119801085562E-01
 cg2d: Sum(rhs),rhsMax =  -6.29120453504067E-03  2.11125657092459E-01
 cg2d: Sum(rhs),rhsMax =  -6.29198248382033E-03  2.11131510315390E-01
 cg2d: Sum(rhs),rhsMax =  -6.29275959172902E-03  2.11137360754380E-01
 cg2d: Sum(rhs),rhsMax =  -6.29353585450486E-03  2.11143208409451E-01
 cg2d: Sum(rhs),rhsMax =  -6.29431126843703E-03  2.11149053280630E-01
 cg2d: Sum(rhs),rhsMax =  -6.29508582914991E-03  2.11154895367956E-01
 cg2d: Sum(rhs),rhsMax =  -6.29585953265925E-03  2.11160734671469E-01
 cg2d: Sum(rhs),rhsMax =  -6.29663237468677E-03  2.11166571191231E-01
 cg2d: Sum(rhs),rhsMax =  -6.29740435090522E-03  2.11172404927283E-01
 cg2d: Sum(rhs),rhsMax =  -6.29817545711888E-03  2.11178235879699E-01
 cg2d: Sum(rhs),rhsMax =  -6.29894568998490E-03  2.11184064048548E-01
 cg2d: Sum(rhs),rhsMax =  -6.29971504486887E-03  2.11189889433889E-01
 cg2d: Sum(rhs),rhsMax =  -6.30048351750882E-03  2.11195712035826E-01
 cg2d: Sum(rhs),rhsMax =  -6.30125110423725E-03  2.11201531854436E-01
 cg2d: Sum(rhs),rhsMax =  -6.30201780036315E-03  2.11207348889811E-01
 cg2d: Sum(rhs),rhsMax =  -6.30278360198633E-03  2.11213163142052E-01
 cg2d: Sum(rhs),rhsMax =  -6.30354850520547E-03  2.11218974611273E-01
 cg2d: Sum(rhs),rhsMax =  -6.30431250620807E-03  2.11224783297580E-01
 cg2d: Sum(rhs),rhsMax =  -6.30507560082510E-03  2.11230589201097E-01
 cg2d: Sum(rhs),rhsMax =  -6.30583778415442E-03  2.11236392321950E-01
 cg2d: Sum(rhs),rhsMax =  -6.30659905316554E-03  2.11242192660270E-01
 cg2d: Sum(rhs),rhsMax =  -6.30735940354889E-03  2.11247990216196E-01
 cg2d: Sum(rhs),rhsMax =  -6.30811883142381E-03  2.11253784989877E-01
 cg2d: Sum(rhs),rhsMax =  -6.30887733238994E-03  2.11259576981464E-01
 cg2d: Sum(rhs),rhsMax =  -6.30963490285229E-03  2.11265366191109E-01
 cg2d: Sum(rhs),rhsMax =  -6.31039153904397E-03  2.11271152618983E-01
 cg2d: Sum(rhs),rhsMax =  -6.31114723656272E-03  2.11276936265256E-01
 cg2d: Sum(rhs),rhsMax =  -6.31190199178462E-03  2.11282717130108E-01
 cg2d: Sum(rhs),rhsMax =  -6.31265580068211E-03  2.11288495213718E-01
 cg2d: Sum(rhs),rhsMax =  -6.31340865935769E-03  2.11294270516282E-01
 cg2d: Sum(rhs),rhsMax =  -6.31416056408015E-03  2.11300043037992E-01
 cg2d: Sum(rhs),rhsMax =  -6.31491151085001E-03  2.11305812779058E-01
 cg2d: Sum(rhs),rhsMax =  -6.31566149603225E-03  2.11311579739683E-01
 cg2d: Sum(rhs),rhsMax =  -6.31641051558641E-03  2.11317343920085E-01
 cg2d: Sum(rhs),rhsMax =  -6.31715856585248E-03  2.11323105320497E-01
 cg2d: Sum(rhs),rhsMax =  -6.31790564384633E-03  2.11328863941134E-01
 cg2d: Sum(rhs),rhsMax =  -6.31865174471389E-03  2.11334619782238E-01
 cg2d: Sum(rhs),rhsMax =  -6.31939686555521E-03  2.11340372844055E-01
 cg2d: Sum(rhs),rhsMax =  -6.32014100211498E-03  2.11346123126830E-01
 cg2d: Sum(rhs),rhsMax =  -6.32088415151262E-03  2.11351870630817E-01
 cg2d: Sum(rhs),rhsMax =  -6.32162630930171E-03  2.11357615356288E-01
 cg2d: Sum(rhs),rhsMax =  -6.32236747259782E-03  2.11363357303499E-01
 cg2d: Sum(rhs),rhsMax =  -6.32310763743421E-03  2.11369096472731E-01
 cg2d: Sum(rhs),rhsMax =  -6.32384680059165E-03  2.11374832864268E-01
 cg2d: Sum(rhs),rhsMax =  -6.32458495845865E-03  2.11380566478394E-01
(PID.TID 0000.0001)      cg2d_init_res =   4.43877359441467E-04
(PID.TID 0000.0001)      cg2d_iters(min,last) =      -1      68
(PID.TID 0000.0001)      cg2d_last_res =   9.51547835927803E-08
(PID.TID 0000.0001) // =======================================================
(PID.TID 0000.0001) // Begin MONITOR dynamic field statistics
(PID.TID 0000.0001) // =======================================================
(PID.TID 0000.0001) %MON time_tsnumber                =                 15048
(PID.TID 0000.0001) %MON time_secondsf                =   1.8057600000000E+07
(PID.TID 0000.0001) %MON dynstat_eta_max              =   3.2319332472335E-01
(PID.TID 0000.0001) %MON dynstat_eta_min              =  -1.0459543587938E-01
(PID.TID 0000.0001) %MON dynstat_eta_mean             =   6.6820064672839E-06
(PID.TID 0000.0001) %MON dynstat_eta_sd               =   1.2595289562072E-01
(PID.TID 0000.0001) %MON dynstat_eta_del2             =   3.2980785159418E-05
(PID.TID 0000.0001) %MON dynstat_uvel_max             =   1.6045831583216E-01
(PID.TID 0000.0001) %MON dynstat_uvel_min             =  -1.2235332544406E-01
(PID.TID 0000.0001) %MON dynstat_uvel_mean            =   3.0169383254867E-08
(PID.TID 0000.0001) %MON dynstat_uvel_sd              =   5.1590947008265E-02
(PID.TID 0000.0001) %MON dynstat_uvel_del2            =   7.3406526278899E-05
(PID.TID 0000.0001) %MON dynstat_vvel_max             =   1.0415896387066E-01
(PID.TID 0000.0001) %MON dynstat_vvel_min             =  -1.3163914077022E-01
(PID.TID 0000.0001) %MON dynstat_vvel_mean            =   1.2428386241488E-07
(PID.TID 0000.0001) %MON dynstat_vvel_sd              =   4.7079786532049E-02
(PID.TID 0000.0001) %MON dynstat_vvel_del2            =   3.8261142990232E-05
(PID.TID 0000.0001) %MON dynstat_wvel_max             =   1.3571026930822E-08
(PID.TID 0000.0001) %MON dynstat_wvel_min             =  -5.3161286028626E-09
(PID.TID 0000.0001) %MON dynstat_wvel_mean            =  -1.3040508090651E-20
(PID.TID 0000.0001) %MON dynstat_wvel_sd              =   4.8259100313662E-09
(PID.TID 0000.0001) %MON dynstat_wvel_del2            =   1.5217825056896E-12
(PID.TID 0000.0001) %MON dynstat_theta_max            =   2.0000000000000E+01
(PID.TID 0000.0001) %MON dynstat_theta_min            =   2.0000000000000E+01
(PID.TID 0000.0001) %MON dynstat_theta_mean           =   2.0000000000000E+01
(PID.TID 0000.0001) %MON dynstat_theta_sd             =   3.8014036363165E-13
(PID.TID 0000.0001) %MON dynstat_theta_del2           =   0.0000000000000E+00
(PID.TID 0000.0001) %MON dynstat_salt_max             =   3.0000000000000E+01
(PID.TID 0000.0001) %MON dynstat_salt_min             =   3.0000000000000E+01
(PID.TID 0000.0001) %MON dynstat_salt_mean            =   2.9999999999999E+01
(PID.TID 0000.0001) %MON dynstat_salt_sd              =   5.5777604757167E-13
(PID.TID 0000.0001) %MON dynstat_salt_del2            =   0.0000000000000E+00
(PID.TID 0000.0001) %MON trAdv_CFL_u_max              =   9.6264034503259E-03
(PID.TID 0000.0001) %MON trAdv_CFL_v_max              =   7.8877298522979E-03
(PID.TID 0000.0001) %MON trAdv_CFL_w_max              =   3.5944072109827E-09
(PID.TID 0000.0001) %MON advcfl_uvel_max              =   9.6274989499296E-03
(PID.TID 0000.0001) %MON advcfl_vvel_max              =   7.8983484462131E-03
(PID.TID 0000.0001) %MON advcfl_wvel_max              =   6.5140929267945E-09
(PID.TID 0000.0001) %MON advcfl_W_hf_max              =   0.0000000000000E+00
(PID.TID 0000.0001) %MON pe_b_mean                    =   1.6264458444723E-05
(PID.TID 0000.0001) %MON ke_max                       =   1.2880151088839E-02
(PID.TID 0000.0001) %MON ke_mean                      =   2.3942150073225E-03
(PID.TID 0000.0001) %MON ke_vol                       =   6.8893493896486E+15
(PID.TID 0000.0001) %MON vort_r_min                   =  -9.9935488562811E-07
(PID.TID 0000.0001) %MON vort_r_max                   =   3.4558498101453E-06
(PID.TID 0000.0001) %MON vort_a_mean                  =   1.0600000000000E-04
(PID.TID 0000.0001) %MON vort_a_sd                    =   3.5696159647144E-06
(PID.TID 0000.0001) %MON vort_p_mean                  =   1.1652272308690E-04
(PID.TID 0000.0001) %MON vort_p_sd                    =   4.1790044907387E-05
(PID.TID 0000.0001) %MON surfExpan_theta_mean         =  -2.6078402647221E-19
(PID.TID 0000.0001) %MON surfExpan_salt_mean          =  -3.9117303963899E-19
(PID.TID 0000.0001) // =======================================================
(PID.TID 0000.0001) // End MONITOR dynamic field statistics
(PID.TID 0000.0001) // =======================================================
 cg2d: Sum(rhs),rhsMax =  -6.32532210762870E-03  2.11386297315406E-01
 cg2d: Sum(rhs),rhsMax =  -6.32605824499070E-03  2.11392025375608E-01
 cg2d: Sum(rhs),rhsMax =  -6.32679336635538E-03  2.11397750659303E-01
 cg2d: Sum(rhs),rhsMax =  -6.32752746970166E-03  2.11403473166807E-01
 cg2d: Sum(rhs),rhsMax =  -6.32826055082511E-03  2.11409192898443E-01
 cg2d: Sum(rhs),rhsMax =  -6.32899260671593E-03  2.11414909854540E-01
 cg2d: Sum(rhs),rhsMax =  -6.32972363407426E-03  2.11420624035430E-01
 cg2d: Sum(rhs),rhsMax =  -6.33045363028845E-03  2.11426335441454E-01
 cg2d: Sum(rhs),rhsMax =  -6.33118259168329E-03  2.11432044072959E-01
 cg2d: Sum(rhs),rhsMax =  -6.33191051567384E-03  2.11437749930301E-01
 cg2d: Sum(rhs),rhsMax =  -6.33263739840877E-03  2.11443453013837E-01
 cg2d: Sum(rhs),rhsMax =  -6.33336323819315E-03  2.11449153323941E-01
 cg2d: Sum(rhs),rhsMax =  -6.33408803116002E-03  2.11454850860983E-01
 cg2d: Sum(rhs),rhsMax =  -6.33481177486172E-03  2.11460545625347E-01
 cg2d: Sum(rhs),rhsMax =  -6.33553446620449E-03  2.11466237617413E-01
 cg2d: Sum(rhs),rhsMax =  -6.33625610249230E-03  2.11471926837579E-01
 cg2d: Sum(rhs),rhsMax =  -6.33697668143183E-03  2.11477613286250E-01
 cg2d: Sum(rhs),rhsMax =  -6.33769620015363E-03  2.11483296963825E-01
 cg2d: Sum(rhs),rhsMax =  -6.33841465576440E-03  2.11488977870725E-01
 cg2d: Sum(rhs),rhsMax =  -6.33913204608632E-03  2.11494656007371E-01
 cg2d: Sum(rhs),rhsMax =  -6.33984836845254E-03  2.11500331374181E-01
 cg2d: Sum(rhs),rhsMax =  -6.34056362105249E-03  2.11506003971600E-01
 cg2d: Sum(rhs),rhsMax =  -6.34127780081022E-03  2.11511673800060E-01
 cg2d: Sum(rhs),rhsMax =  -6.34199090600026E-03  2.11517340860014E-01
 cg2d: Sum(rhs),rhsMax =  -6.34270293413596E-03  2.11523005151913E-01
 cg2d: Sum(rhs),rhsMax =  -6.34341388289402E-03  2.11528666676220E-01
 cg2d: Sum(rhs),rhsMax =  -6.34412375036340E-03  2.11534325433401E-01
 cg2d: Sum(rhs),rhsMax =  -6.34483253471280E-03  2.11539981423933E-01
 cg2d: Sum(rhs),rhsMax =  -6.34554023380659E-03  2.11545634648293E-01
 cg2d: Sum(rhs),rhsMax =  -6.34624684595456E-03  2.11551285106971E-01
 cg2d: Sum(rhs),rhsMax =  -6.34695236900240E-03  2.11556932800455E-01
 cg2d: Sum(rhs),rhsMax =  -6.34765680186411E-03  2.11562577729253E-01
 cg2d: Sum(rhs),rhsMax =  -6.34836014221011E-03  2.11568219893876E-01
 cg2d: Sum(rhs),rhsMax =  -6.34906238893045E-03  2.11573859294829E-01
 cg2d: Sum(rhs),rhsMax =  -6.34976354024513E-03  2.11579495932640E-01
 cg2d: Sum(rhs),rhsMax =  -6.35046359519679E-03  2.11585129807830E-01
 cg2d: Sum(rhs),rhsMax =  -6.35116255228374E-03  2.11590760920942E-01
 cg2d: Sum(rhs),rhsMax =  -6.35186041037784E-03  2.11596389272514E-01
 cg2d: Sum(rhs),rhsMax =  -6.35255716779955E-03  2.11602014863091E-01
 cg2d: Sum(rhs),rhsMax =  -6.35325282369500E-03  2.11607637693235E-01
 cg2d: Sum(rhs),rhsMax =  -6.35394737706512E-03  2.11613257763499E-01
 cg2d: Sum(rhs),rhsMax =  -6.35464082744835E-03  2.11618875074460E-01
 cg2d: Sum(rhs),rhsMax =  -6.35533317354780E-03  2.11624489626690E-01
 cg2d: Sum(rhs),rhsMax =  -6.35602441525211E-03  2.11630101420770E-01
 cg2d: Sum(rhs),rhsMax =  -6.35671455108508E-03  2.11635710457287E-01
 cg2d: Sum(rhs),rhsMax =  -6.35740358151906E-03  2.11641316736843E-01
 cg2d: Sum(rhs),rhsMax =  -6.35809150530540E-03  2.11646920260038E-01
 cg2d: Sum(rhs),rhsMax =  -6.35877832216536E-03  2.11652521027472E-01
 cg2d: Sum(rhs),rhsMax =  -6.35946403252853E-03  2.11658119039778E-01
 cg2d: Sum(rhs),rhsMax =  -6.36014863562245E-03  2.11663714297568E-01
 cg2d: Sum(rhs),rhsMax =  -6.36083213161608E-03  2.11669306801476E-01
 cg2d: Sum(rhs),rhsMax =  -6.36151452099778E-03  2.11674896552135E-01
 cg2d: Sum(rhs),rhsMax =  -6.36219580312858E-03  2.11680483550189E-01
 cg2d: Sum(rhs),rhsMax =  -6.36287597880122E-03  2.11686067796291E-01
 cg2d: Sum(rhs),rhsMax =  -6.36355504824196E-03  2.11691649291096E-01
 cg2d: Sum(rhs),rhsMax =  -6.36423301177999E-03  2.11697228035269E-01
 cg2d: Sum(rhs),rhsMax =  -6.36490987075176E-03  2.11702804029477E-01
 cg2d: Sum(rhs),rhsMax =  -6.36558562524864E-03  2.11708377274407E-01
 cg2d: Sum(rhs),rhsMax =  -6.36626027626458E-03  2.11713947770730E-01
 cg2d: Sum(rhs),rhsMax =  -6.36693382428297E-03  2.11719515519148E-01
 cg2d: Sum(rhs),rhsMax =  -6.36760627144738E-03  2.11725080520356E-01
 cg2d: Sum(rhs),rhsMax =  -6.36827761763835E-03  2.11730642775059E-01
 cg2d: Sum(rhs),rhsMax =  -6.36894786508076E-03  2.11736202283967E-01
 cg2d: Sum(rhs),rhsMax =  -6.36961701496200E-03  2.11741759047803E-01
 cg2d: Sum(rhs),rhsMax =  -6.37028506823787E-03  2.11747313067289E-01
 cg2d: Sum(rhs),rhsMax =  -6.37095202695041E-03  2.11752864343158E-01
 cg2d: Sum(rhs),rhsMax =  -6.37161789292496E-03  2.11758412876153E-01
 cg2d: Sum(rhs),rhsMax =  -6.37228266846980E-03  2.11763958667016E-01
 cg2d: Sum(rhs),rhsMax =  -6.37294635482514E-03  2.11769501716501E-01
 cg2d: Sum(rhs),rhsMax =  -6.37360895460630E-03  2.11775042025369E-01
 cg2d: Sum(rhs),rhsMax =  -6.37427046941260E-03  2.11780579594389E-01
 cg2d: Sum(rhs),rhsMax =  -6.37493090251757E-03  2.11786114424332E-01
(PID.TID 0000.0001)      cg2d_init_res =   4.38584509413215E-04
(PID.TID 0000.0001)      cg2d_iters(min,last) =      -1      68
(PID.TID 0000.0001)      cg2d_last_res =   9.66617824641375E-08
(PID.TID 0000.0001) // =======================================================
(PID.TID 0000.0001) // Begin MONITOR dynamic field statistics
(PID.TID 0000.0001) // =======================================================
(PID.TID 0000.0001) %MON time_tsnumber                =                 15120
(PID.TID 0000.0001) %MON time_secondsf                =   1.8144000000000E+07
(PID.TID 0000.0001) %MON dynstat_eta_max              =   3.2435913270377E-01
(PID.TID 0000.0001) %MON dynstat_eta_min              =  -1.0481607726644E-01
(PID.TID 0000.0001) %MON dynstat_eta_mean             =   6.7480243133471E-06
(PID.TID 0000.0001) %MON dynstat_eta_sd               =   1.2634406707769E-01
(PID.TID 0000.0001) %MON dynstat_eta_del2             =   3.3062400001578E-05
(PID.TID 0000.0001) %MON dynstat_uvel_max             =   1.6085535056887E-01
(PID.TID 0000.0001) %MON dynstat_uvel_min             =  -1.2281877482299E-01
(PID.TID 0000.0001) %MON dynstat_uvel_mean            =   3.5805587115545E-08
(PID.TID 0000.0001) %MON dynstat_uvel_sd              =   5.1756607918209E-02
(PID.TID 0000.0001) %MON dynstat_uvel_del2            =   7.3525179702435E-05
(PID.TID 0000.0001) %MON dynstat_vvel_max             =   1.0462152304802E-01
(PID.TID 0000.0001) %MON dynstat_vvel_min             =  -1.3204814928725E-01
(PID.TID 0000.0001) %MON dynstat_vvel_mean            =   1.2021346827987E-07
(PID.TID 0000.0001) %MON dynstat_vvel_sd              =   4.7213453458114E-02
(PID.TID 0000.0001) %MON dynstat_vvel_del2            =   3.8139945944505E-05
(PID.TID 0000.0001) %MON dynstat_wvel_max             =   1.3577492579070E-08
(PID.TID 0000.0001) %MON dynstat_wvel_min             =  -5.4021933310287E-09
(PID.TID 0000.0001) %MON dynstat_wvel_mean            =   2.0186660347261E-20
(PID.TID 0000.0001) %MON dynstat_wvel_sd              =   4.8259625429903E-09
(PID.TID 0000.0001) %MON dynstat_wvel_del2            =   1.5094848668096E-12
(PID.TID 0000.0001) %MON dynstat_theta_max            =   2.0000000000000E+01
(PID.TID 0000.0001) %MON dynstat_theta_min            =   2.0000000000000E+01
(PID.TID 0000.0001) %MON dynstat_theta_mean           =   2.0000000000000E+01
(PID.TID 0000.0001) %MON dynstat_theta_sd             =   3.8014036363165E-13
(PID.TID 0000.0001) %MON dynstat_theta_del2           =   0.0000000000000E+00
(PID.TID 0000.0001) %MON dynstat_salt_max             =   3.0000000000000E+01
(PID.TID 0000.0001) %MON dynstat_salt_min             =   3.0000000000000E+01
(PID.TID 0000.0001) %MON dynstat_salt_mean            =   2.9999999999999E+01
(PID.TID 0000.0001) %MON dynstat_salt_sd              =   5.5777604757167E-13
(PID.TID 0000.0001) %MON dynstat_salt_del2            =   0.0000000000000E+00
(PID.TID 0000.0001) %MON trAdv_CFL_u_max              =   9.6502313405607E-03
(PID.TID 0000.0001) %MON trAdv_CFL_v_max              =   7.9122251671836E-03
(PID.TID 0000.0001) %MON trAdv_CFL_w_max              =   3.5957907934588E-09
(PID.TID 0000.0001) %MON advcfl_uvel_max              =   9.6513210341319E-03
(PID.TID 0000.0001) %MON advcfl_vvel_max              =   7.9228889572347E-03
(PID.TID 0000.0001) %MON advcfl_wvel_max              =   6.5171964379537E-09
(PID.TID 0000.0001) %MON advcfl_W_hf_max              =   0.0000000000000E+00
(PID.TID 0000.0001) %MON pe_b_mean                    =   1.6365640262463E-05
(PID.TID 0000.0001) %MON ke_max                       =   1.2944696332262E-02
(PID.TID 0000.0001) %MON ke_mean                      =   2.4088039795322E-03
(PID.TID 0000.0001) %MON ke_vol                       =   6.8893493896486E+15
(PID.TID 0000.0001) %MON vort_r_min                   =  -9.9867983593134E-07
(PID.TID 0000.0001) %MON vort_r_max                   =   3.4638646686360E-06
(PID.TID 0000.0001) %MON vort_a_mean                  =   1.0600000000000E-04
(PID.TID 0000.0001) %MON vort_a_sd                    =   3.5698196581307E-06
(PID.TID 0000.0001) %MON vort_p_mean                  =   1.1652272308690E-04
(PID.TID 0000.0001) %MON vort_p_sd                    =   4.1790139087465E-05
(PID.TID 0000.0001) %MON surfExpan_theta_mean         =   4.0374838287486E-19
(PID.TID 0000.0001) %MON surfExpan_salt_mean          =   6.0560978454305E-19
(PID.TID 0000.0001) // =======================================================
(PID.TID 0000.0001) // End MONITOR dynamic field statistics
(PID.TID 0000.0001) // =======================================================
 cg2d: Sum(rhs),rhsMax =  -6.37559025611688E-03  2.11791646515979E-01
 cg2d: Sum(rhs),rhsMax =  -6.37624853271453E-03  2.11797175870119E-01
 cg2d: Sum(rhs),rhsMax =  -6.37690573509580E-03  2.11802702487547E-01
 cg2d: Sum(rhs),rhsMax =  -6.37756186627077E-03  2.11808226369068E-01
 cg2d: Sum(rhs),rhsMax =  -6.37821692924771E-03  2.11813747515482E-01
 cg2d: Sum(rhs),rhsMax =  -6.37887092705976E-03  2.11819265927611E-01
 cg2d: Sum(rhs),rhsMax =  -6.37952386317001E-03  2.11824781606274E-01
 cg2d: Sum(rhs),rhsMax =  -6.38017574102892E-03  2.11830294552300E-01
 cg2d: Sum(rhs),rhsMax =  -6.38082656412991E-03  2.11835804766532E-01
 cg2d: Sum(rhs),rhsMax =  -6.38147633604174E-03  2.11841312249803E-01
 cg2d: Sum(rhs),rhsMax =  -6.38212506100515E-03  2.11846817002974E-01
 cg2d: Sum(rhs),rhsMax =  -6.38277274299233E-03  2.11852319026894E-01
 cg2d: Sum(rhs),rhsMax =  -6.38341938553377E-03  2.11857818322430E-01
 cg2d: Sum(rhs),rhsMax =  -6.38406499331640E-03  2.11863314890457E-01
 cg2d: Sum(rhs),rhsMax =  -6.38470957084369E-03  2.11868808731844E-01
 cg2d: Sum(rhs),rhsMax =  -6.38535312212944E-03  2.11874299847483E-01
 cg2d: Sum(rhs),rhsMax =  -6.38599565265756E-03  2.11879788238266E-01
 cg2d: Sum(rhs),rhsMax =  -6.38663716700729E-03  2.11885273905085E-01
 cg2d: Sum(rhs),rhsMax =  -6.38727766960919E-03  2.11890756848857E-01
 cg2d: Sum(rhs),rhsMax =  -6.38791716623780E-03  2.11896237070483E-01
 cg2d: Sum(rhs),rhsMax =  -6.38855566200101E-03  2.11901714570891E-01
 cg2d: Sum(rhs),rhsMax =  -6.38919316169911E-03  2.11907189351008E-01
 cg2d: Sum(rhs),rhsMax =  -6.38982967118202E-03  2.11912661411765E-01
 cg2d: Sum(rhs),rhsMax =  -6.39046519679949E-03  2.11918130754105E-01
 cg2d: Sum(rhs),rhsMax =  -6.39109974356744E-03  2.11923597378973E-01
 cg2d: Sum(rhs),rhsMax =  -6.39173331837348E-03  2.11929061287321E-01
 cg2d: Sum(rhs),rhsMax =  -6.39236592618132E-03  2.11934522480120E-01
 cg2d: Sum(rhs),rhsMax =  -6.39299757389179E-03  2.11939980958333E-01
 cg2d: Sum(rhs),rhsMax =  -6.39362826766074E-03  2.11945436722936E-01
 cg2d: Sum(rhs),rhsMax =  -6.39425801451108E-03  2.11950889774916E-01
 cg2d: Sum(rhs),rhsMax =  -6.39488682092923E-03  2.11956340115258E-01
 cg2d: Sum(rhs),rhsMax =  -6.39551469323654E-03  2.11961787744962E-01
 cg2d: Sum(rhs),rhsMax =  -6.39614163873882E-03  2.11967232665028E-01
 cg2d: Sum(rhs),rhsMax =  -6.39676766473667E-03  2.11972674876472E-01
 cg2d: Sum(rhs),rhsMax =  -6.39739277870610E-03  2.11978114380307E-01
 cg2d: Sum(rhs),rhsMax =  -6.39801698753182E-03  2.11983551177567E-01
 cg2d: Sum(rhs),rhsMax =  -6.39864029942747E-03  2.11988985269274E-01
 cg2d: Sum(rhs),rhsMax =  -6.39926272205507E-03  2.11994416656476E-01
 cg2d: Sum(rhs),rhsMax =  -6.39988426216824E-03  2.11999845340208E-01
 cg2d: Sum(rhs),rhsMax =  -6.40050492889741E-03  2.12005271321535E-01
 cg2d: Sum(rhs),rhsMax =  -6.40112473020754E-03  2.12010694601510E-01
 cg2d: Sum(rhs),rhsMax =  -6.40174367366195E-03  2.12016115181204E-01
 cg2d: Sum(rhs),rhsMax =  -6.40236176845500E-03  2.12021533061690E-01
 cg2d: Sum(rhs),rhsMax =  -6.40297902282005E-03  2.12026948244050E-01
 cg2d: Sum(rhs),rhsMax =  -6.40359544524265E-03  2.12032360729371E-01
 cg2d: Sum(rhs),rhsMax =  -6.40421104550420E-03  2.12037770518747E-01
 cg2d: Sum(rhs),rhsMax =  -6.40482583143528E-03  2.12043177613288E-01
 cg2d: Sum(rhs),rhsMax =  -6.40543981253640E-03  2.12048582014098E-01
 cg2d: Sum(rhs),rhsMax =  -6.40605299856189E-03  2.12053983722295E-01
 cg2d: Sum(rhs),rhsMax =  -6.40666539827922E-03  2.12059382739004E-01
 cg2d: Sum(rhs),rhsMax =  -6.40727702124561E-03  2.12064779065352E-01
 cg2d: Sum(rhs),rhsMax =  -6.40788787759748E-03  2.12070172702482E-01
 cg2d: Sum(rhs),rhsMax =  -6.40849797652265E-03  2.12075563651536E-01
 cg2d: Sum(rhs),rhsMax =  -6.40910732847347E-03  2.12080951913665E-01
 cg2d: Sum(rhs),rhsMax =  -6.40971594288948E-03  2.12086337490033E-01
 cg2d: Sum(rhs),rhsMax =  -6.41032383082217E-03  2.12091720381808E-01
 cg2d: Sum(rhs),rhsMax =  -6.41093100192951E-03  2.12097100590149E-01
 cg2d: Sum(rhs),rhsMax =  -6.41153746644426E-03  2.12102478116254E-01
 cg2d: Sum(rhs),rhsMax =  -6.41214323578016E-03  2.12107852961303E-01
 cg2d: Sum(rhs),rhsMax =  -6.41274831958587E-03  2.12113225126490E-01
 cg2d: Sum(rhs),rhsMax =  -6.41335272913827E-03  2.12118594613017E-01
 cg2d: Sum(rhs),rhsMax =  -6.41395647537680E-03  2.12123961422098E-01
 cg2d: Sum(rhs),rhsMax =  -6.41455956956992E-03  2.12129325554943E-01
 cg2d: Sum(rhs),rhsMax =  -6.41516202288511E-03  2.12134687012780E-01
 cg2d: Sum(rhs),rhsMax =  -6.41576384562318E-03  2.12140045796832E-01
 cg2d: Sum(rhs),rhsMax =  -6.41636505041750E-03  2.12145401908345E-01
 cg2d: Sum(rhs),rhsMax =  -6.41696564801894E-03  2.12150755348560E-01
 cg2d: Sum(rhs),rhsMax =  -6.41756565052997E-03  2.12156106118726E-01
 cg2d: Sum(rhs),rhsMax =  -6.41816506932857E-03  2.12161454220109E-01
 cg2d: Sum(rhs),rhsMax =  -6.41876391635254E-03  2.12166799653961E-01
 cg2d: Sum(rhs),rhsMax =  -6.41936220336767E-03  2.12172142421572E-01
 cg2d: Sum(rhs),rhsMax =  -6.41995994277965E-03  2.12177482524209E-01
(PID.TID 0000.0001)      cg2d_init_res =   4.33324840107484E-04
(PID.TID 0000.0001)      cg2d_iters(min,last) =      -1      68
(PID.TID 0000.0001)      cg2d_last_res =   9.80875951538341E-08
(PID.TID 0000.0001) // =======================================================
(PID.TID 0000.0001) // Begin MONITOR dynamic field statistics
(PID.TID 0000.0001) // =======================================================
(PID.TID 0000.0001) %MON time_tsnumber                =                 15192
(PID.TID 0000.0001) %MON time_secondsf                =   1.8230400000000E+07
(PID.TID 0000.0001) %MON dynstat_eta_max              =   3.2552469265312E-01
(PID.TID 0000.0001) %MON dynstat_eta_min              =  -1.0504708899996E-01
(PID.TID 0000.0001) %MON dynstat_eta_mean             =   6.8081692950033E-06
(PID.TID 0000.0001) %MON dynstat_eta_sd               =   1.2673477674838E-01
(PID.TID 0000.0001) %MON dynstat_eta_del2             =   3.3143063854754E-05
(PID.TID 0000.0001) %MON dynstat_uvel_max             =   1.6124290097107E-01
(PID.TID 0000.0001) %MON dynstat_uvel_min             =  -1.2328010897662E-01
(PID.TID 0000.0001) %MON dynstat_uvel_mean            =   4.0732407031159E-08
(PID.TID 0000.0001) %MON dynstat_uvel_sd              =   5.1921785010956E-02
(PID.TID 0000.0001) %MON dynstat_uvel_del2            =   7.3638214238371E-05
(PID.TID 0000.0001) %MON dynstat_vvel_max             =   1.0507896742843E-01
(PID.TID 0000.0001) %MON dynstat_vvel_min             =  -1.3247273027382E-01
(PID.TID 0000.0001) %MON dynstat_vvel_mean            =   1.1524660891351E-07
(PID.TID 0000.0001) %MON dynstat_vvel_sd              =   4.7347110071374E-02
(PID.TID 0000.0001) %MON dynstat_vvel_del2            =   3.8022476284661E-05
(PID.TID 0000.0001) %MON dynstat_wvel_max             =   1.3584113087554E-08
(PID.TID 0000.0001) %MON dynstat_wvel_min             =  -5.4614534055145E-09
(PID.TID 0000.0001) %MON dynstat_wvel_mean            =   6.0839197936326E-21
(PID.TID 0000.0001) %MON dynstat_wvel_sd              =   4.8258429312648E-09
(PID.TID 0000.0001) %MON dynstat_wvel_del2            =   1.4982697973358E-12
(PID.TID 0000.0001) %MON dynstat_theta_max            =   2.0000000000000E+01
(PID.TID 0000.0001) %MON dynstat_theta_min            =   2.0000000000000E+01
(PID.TID 0000.0001) %MON dynstat_theta_mean           =   2.0000000000000E+01
(PID.TID 0000.0001) %MON dynstat_theta_sd             =   3.8014036363165E-13
(PID.TID 0000.0001) %MON dynstat_theta_del2           =   0.0000000000000E+00
(PID.TID 0000.0001) %MON dynstat_salt_max             =   3.0000000000000E+01
(PID.TID 0000.0001) %MON dynstat_salt_min             =   3.0000000000000E+01
(PID.TID 0000.0001) %MON dynstat_salt_mean            =   2.9999999999999E+01
(PID.TID 0000.0001) %MON dynstat_salt_sd              =   5.5777604757167E-13
(PID.TID 0000.0001) %MON dynstat_salt_del2            =   0.0000000000000E+00
(PID.TID 0000.0001) %MON trAdv_CFL_u_max              =   9.6734906248468E-03
(PID.TID 0000.0001) %MON trAdv_CFL_v_max              =   7.9376542174674E-03
(PID.TID 0000.0001) %MON trAdv_CFL_w_max              =   3.5982159265618E-09
(PID.TID 0000.0001) %MON advcfl_uvel_max              =   9.6745740582641E-03
(PID.TID 0000.0001) %MON advcfl_vvel_max              =   7.9483638164293E-03
(PID.TID 0000.0001) %MON advcfl_wvel_max              =   6.5203742820260E-09
(PID.TID 0000.0001) %MON advcfl_W_hf_max              =   0.0000000000000E+00
(PID.TID 0000.0001) %MON pe_b_mean                    =   1.6467015830256E-05
(PID.TID 0000.0001) %MON ke_max                       =   1.3007916631288E-02
(PID.TID 0000.0001) %MON ke_mean                      =   2.4234122907946E-03
(PID.TID 0000.0001) %MON ke_vol                       =   6.8893493896486E+15
(PID.TID 0000.0001) %MON vort_r_min                   =  -9.9773891945482E-07
(PID.TID 0000.0001) %MON vort_r_max                   =   3.4716670168195E-06
(PID.TID 0000.0001) %MON vort_a_mean                  =   1.0600000000000E-04
(PID.TID 0000.0001) %MON vort_a_sd                    =   3.5700208328311E-06
(PID.TID 0000.0001) %MON vort_p_mean                  =   1.1652272308690E-04
(PID.TID 0000.0001) %MON vort_p_sd                    =   4.1790231770035E-05
(PID.TID 0000.0001) %MON surfExpan_theta_mean         =   1.2171060209059E-19
(PID.TID 0000.0001) %MON surfExpan_salt_mean          =   1.8254821851668E-19
(PID.TID 0000.0001) // =======================================================
(PID.TID 0000.0001) // End MONITOR dynamic field statistics
(PID.TID 0000.0001) // =======================================================
 cg2d: Sum(rhs),rhsMax =  -6.42055714648498E-03  2.12182819963170E-01
 cg2d: Sum(rhs),rhsMax =  -6.42115382647913E-03  2.12188154739738E-01
 cg2d: Sum(rhs),rhsMax =  -6.42174999518640E-03  2.12193486855223E-01
 cg2d: Sum(rhs),rhsMax =  -6.42234566553743E-03  2.12198816310929E-01
 cg2d: Sum(rhs),rhsMax =  -6.42294084923923E-03  2.12204143108176E-01
 cg2d: Sum(rhs),rhsMax =  -6.42353555914676E-03  2.12209467248284E-01
 cg2d: Sum(rhs),rhsMax =  -6.42412980837646E-03  2.12214788732583E-01
 cg2d: Sum(rhs),rhsMax =  -6.42472360930835E-03  2.12220107562411E-01
 cg2d: Sum(rhs),rhsMax =  -6.42531697485472E-03  2.12225423739114E-01
 cg2d: Sum(rhs),rhsMax =  -6.42590991823779E-03  2.12230737264040E-01
 cg2d: Sum(rhs),rhsMax =  -6.42650245210118E-03  2.12236048138550E-01
 cg2d: Sum(rhs),rhsMax =  -6.42709458966744E-03  2.12241356364008E-01
 cg2d: Sum(rhs),rhsMax =  -6.42768634410159E-03  2.12246661941787E-01
 cg2d: Sum(rhs),rhsMax =  -6.42827772879537E-03  2.12251964873270E-01
 cg2d: Sum(rhs),rhsMax =  -6.42886875663404E-03  2.12257265159844E-01
 cg2d: Sum(rhs),rhsMax =  -6.42945944142246E-03  2.12262562802900E-01
 cg2d: Sum(rhs),rhsMax =  -6.43004979653113E-03  2.12267857803841E-01
 cg2d: Sum(rhs),rhsMax =  -6.43063983494786E-03  2.12273150164075E-01
 cg2d: Sum(rhs),rhsMax =  -6.43122957083363E-03  2.12278439885022E-01
 cg2d: Sum(rhs),rhsMax =  -6.43181901769323E-03  2.12283726968096E-01
 cg2d: Sum(rhs),rhsMax =  -6.43240818879268E-03  2.12289011414737E-01
 cg2d: Sum(rhs),rhsMax =  -6.43299709829374E-03  2.12294293226378E-01
 cg2d: Sum(rhs),rhsMax =  -6.43358575942210E-03  2.12299572404463E-01
 cg2d: Sum(rhs),rhsMax =  -6.43417418677594E-03  2.12304848950439E-01
 cg2d: Sum(rhs),rhsMax =  -6.43476239343561E-03  2.12310122865778E-01
 cg2d: Sum(rhs),rhsMax =  -6.43535039349736E-03  2.12315394151936E-01
 cg2d: Sum(rhs),rhsMax =  -6.43593820111228E-03  2.12320662810388E-01
 cg2d: Sum(rhs),rhsMax =  -6.43652582981425E-03  2.12325928842611E-01
 cg2d: Sum(rhs),rhsMax =  -6.43711329404110E-03  2.12331192250099E-01
 cg2d: Sum(rhs),rhsMax =  -6.43770060745502E-03  2.12336453034344E-01
 cg2d: Sum(rhs),rhsMax =  -6.43828778410113E-03  2.12341711196847E-01
 cg2d: Sum(rhs),rhsMax =  -6.43887483841827E-03  2.12346966739116E-01
 cg2d: Sum(rhs),rhsMax =  -6.43946178406466E-03  2.12352219662666E-01
 cg2d: Sum(rhs),rhsMax =  -6.44004863543670E-03  2.12357469969027E-01
 cg2d: Sum(rhs),rhsMax =  -6.44063540654282E-03  2.12362717659723E-01
 cg2d: Sum(rhs),rhsMax =  -6.44122211116536E-03  2.12367962736294E-01
 cg2d: Sum(rhs),rhsMax =  -6.44180876385503E-03  2.12373205200290E-01
 cg2d: Sum(rhs),rhsMax =  -6.44239537886501E-03  2.12378445053251E-01
 cg2d: Sum(rhs),rhsMax =  -6.44298196996828E-03  2.12383682296744E-01
 cg2d: Sum(rhs),rhsMax =  -6.44356855120076E-03  2.12388916932334E-01
 cg2d: Sum(rhs),rhsMax =  -6.44415513697091E-03  2.12394148961600E-01
 cg2d: Sum(rhs),rhsMax =  -6.44474174164454E-03  2.12399378386109E-01
 cg2d: Sum(rhs),rhsMax =  -6.44532837872015E-03  2.12404605207463E-01
 cg2d: Sum(rhs),rhsMax =  -6.44591506265658E-03  2.12409829427258E-01
 cg2d: Sum(rhs),rhsMax =  -6.44650180756006E-03  2.12415051047079E-01
 cg2d: Sum(rhs),rhsMax =  -6.44708862734676E-03  2.12420270068551E-01
 cg2d: Sum(rhs),rhsMax =  -6.44767553670179E-03  2.12425486493281E-01
 cg2d: Sum(rhs),rhsMax =  -6.44826254884704E-03  2.12430700322903E-01
 cg2d: Sum(rhs),rhsMax =  -6.44884967843807E-03  2.12435911559041E-01
 cg2d: Sum(rhs),rhsMax =  -6.44943693899497E-03  2.12441120203333E-01
 cg2d: Sum(rhs),rhsMax =  -6.45002434476027E-03  2.12446326257431E-01
 cg2d: Sum(rhs),rhsMax =  -6.45061190983012E-03  2.12451529722980E-01
 cg2d: Sum(rhs),rhsMax =  -6.45119964726497E-03  2.12456730601641E-01
 cg2d: Sum(rhs),rhsMax =  -6.45178757207566E-03  2.12461928895087E-01
 cg2d: Sum(rhs),rhsMax =  -6.45237569732909E-03  2.12467124604983E-01
 cg2d: Sum(rhs),rhsMax =  -6.45296403720931E-03  2.12472317733018E-01
 cg2d: Sum(rhs),rhsMax =  -6.45355260508273E-03  2.12477508280875E-01
 cg2d: Sum(rhs),rhsMax =  -6.45414141479588E-03  2.12482696250251E-01
 cg2d: Sum(rhs),rhsMax =  -6.45473048008448E-03  2.12487881642852E-01
 cg2d: Sum(rhs),rhsMax =  -6.45531981441557E-03  2.12493064460381E-01
 cg2d: Sum(rhs),rhsMax =  -6.45590943126606E-03  2.12498244704563E-01
 cg2d: Sum(rhs),rhsMax =  -6.45649934434853E-03  2.12503422377121E-01
 cg2d: Sum(rhs),rhsMax =  -6.45708956706948E-03  2.12508597479782E-01
 cg2d: Sum(rhs),rhsMax =  -6.45768011275290E-03  2.12513770014290E-01
 cg2d: Sum(rhs),rhsMax =  -6.45827099425941E-03  2.12518939982382E-01
 cg2d: Sum(rhs),rhsMax =  -6.45886222500943E-03  2.12524107385819E-01
 cg2d: Sum(rhs),rhsMax =  -6.45945381873617E-03  2.12529272226363E-01
 cg2d: Sum(rhs),rhsMax =  -6.46004578834060E-03  2.12534434505778E-01
 cg2d: Sum(rhs),rhsMax =  -6.46063814615007E-03  2.12539594225838E-01
 cg2d: Sum(rhs),rhsMax =  -6.46123090596667E-03  2.12544751388324E-01
 cg2d: Sum(rhs),rhsMax =  -6.46182408007077E-03  2.12549905995025E-01
 cg2d: Sum(rhs),rhsMax =  -6.46241768166221E-03  2.12555058047742E-01
(PID.TID 0000.0001)      cg2d_init_res =   4.28187427149136E-04
(PID.TID 0000.0001)      cg2d_iters(min,last) =      -1      68
(PID.TID 0000.0001)      cg2d_last_res =   9.83240782986068E-08
(PID.TID 0000.0001) // =======================================================
(PID.TID 0000.0001) // Begin MONITOR dynamic field statistics
(PID.TID 0000.0001) // =======================================================
(PID.TID 0000.0001) %MON time_tsnumber                =                 15264
(PID.TID 0000.0001) %MON time_secondsf                =   1.8316800000000E+07
(PID.TID 0000.0001) %MON dynstat_eta_max              =   3.2668980458273E-01
(PID.TID 0000.0001) %MON dynstat_eta_min              =  -1.0529128577957E-01
(PID.TID 0000.0001) %MON dynstat_eta_mean             =   6.8653759285443E-06
(PID.TID 0000.0001) %MON dynstat_eta_sd               =   1.2712502748418E-01
(PID.TID 0000.0001) %MON dynstat_eta_del2             =   3.3222832843226E-05
(PID.TID 0000.0001) %MON dynstat_uvel_max             =   1.6162052979249E-01
(PID.TID 0000.0001) %MON dynstat_uvel_min             =  -1.2373510614154E-01
(PID.TID 0000.0001) %MON dynstat_uvel_mean            =   4.4669735256615E-08
(PID.TID 0000.0001) %MON dynstat_uvel_sd              =   5.2085997603492E-02
(PID.TID 0000.0001) %MON dynstat_uvel_del2            =   7.3745522695158E-05
(PID.TID 0000.0001) %MON dynstat_vvel_max             =   1.0553104936057E-01
(PID.TID 0000.0001) %MON dynstat_vvel_min             =  -1.3291197217957E-01
(PID.TID 0000.0001) %MON dynstat_vvel_mean            =   1.0947875291749E-07
(PID.TID 0000.0001) %MON dynstat_vvel_sd              =   4.7481373011046E-02
(PID.TID 0000.0001) %MON dynstat_vvel_del2            =   3.7909283820157E-05
(PID.TID 0000.0001) %MON dynstat_wvel_max             =   1.3590119126093E-08
(PID.TID 0000.0001) %MON dynstat_wvel_min             =  -5.4856906787609E-09
(PID.TID 0000.0001) %MON dynstat_wvel_mean            =  -3.0332240738870E-21
(PID.TID 0000.0001) %MON dynstat_wvel_sd              =   4.8253259678550E-09
(PID.TID 0000.0001) %MON dynstat_wvel_del2            =   1.4878682316427E-12
(PID.TID 0000.0001) %MON dynstat_theta_max            =   2.0000000000000E+01
(PID.TID 0000.0001) %MON dynstat_theta_min            =   2.0000000000000E+01
(PID.TID 0000.0001) %MON dynstat_theta_mean           =   2.0000000000000E+01
(PID.TID 0000.0001) %MON dynstat_theta_sd             =   3.8014036363165E-13
(PID.TID 0000.0001) %MON dynstat_theta_del2           =   0.0000000000000E+00
(PID.TID 0000.0001) %MON dynstat_salt_max             =   3.0000000000000E+01
(PID.TID 0000.0001) %MON dynstat_salt_min             =   3.0000000000000E+01
(PID.TID 0000.0001) %MON dynstat_salt_mean            =   2.9999999999999E+01
(PID.TID 0000.0001) %MON dynstat_salt_sd              =   5.5777604757167E-13
(PID.TID 0000.0001) %MON dynstat_salt_del2            =   0.0000000000000E+00
(PID.TID 0000.0001) %MON trAdv_CFL_u_max              =   9.6961549801084E-03
(PID.TID 0000.0001) %MON trAdv_CFL_v_max              =   7.9639626832807E-03
(PID.TID 0000.0001) %MON trAdv_CFL_w_max              =   3.6016132537131E-09
(PID.TID 0000.0001) %MON advcfl_uvel_max              =   9.6972317875494E-03
(PID.TID 0000.0001) %MON advcfl_vvel_max              =   7.9747183307739E-03
(PID.TID 0000.0001) %MON advcfl_wvel_max              =   6.5232571805245E-09
(PID.TID 0000.0001) %MON advcfl_W_hf_max              =   0.0000000000000E+00
(PID.TID 0000.0001) %MON pe_b_mean                    =   1.6568584781535E-05
(PID.TID 0000.0001) %MON ke_max                       =   1.3069728998759E-02
(PID.TID 0000.0001) %MON ke_mean                      =   2.4380438654301E-03
(PID.TID 0000.0001) %MON ke_vol                       =   6.8893493896486E+15
(PID.TID 0000.0001) %MON vort_r_min                   =  -9.9653799557164E-07
(PID.TID 0000.0001) %MON vort_r_max                   =   3.4792486589849E-06
(PID.TID 0000.0001) %MON vort_a_mean                  =   1.0600000000000E-04
(PID.TID 0000.0001) %MON vort_a_sd                    =   3.5702197094729E-06
(PID.TID 0000.0001) %MON vort_p_mean                  =   1.1652272308690E-04
(PID.TID 0000.0001) %MON vort_p_sd                    =   4.1790322495832E-05
(PID.TID 0000.0001) %MON surfExpan_theta_mean         =  -6.0608663766794E-20
(PID.TID 0000.0001) %MON surfExpan_salt_mean          =  -9.0917101008219E-20
(PID.TID 0000.0001) // =======================================================
(PID.TID 0000.0001) // End MONITOR dynamic field statistics
(PID.TID 0000.0001) // =======================================================
 cg2d: Sum(rhs),rhsMax =  -6.46301172361420E-03  2.12560207548274E-01
 cg2d: Sum(rhs),rhsMax =  -6.46360621805693E-03  2.12565354498430E-01
 cg2d: Sum(rhs),rhsMax =  -6.46420117786683E-03  2.12570498900030E-01
 cg2d: Sum(rhs),rhsMax =  -6.46479661565500E-03  2.12575640754902E-01
 cg2d: Sum(rhs),rhsMax =  -6.46539254332392E-03  2.12580780064869E-01
 cg2d: Sum(rhs),rhsMax =  -6.46598897323521E-03  2.12585916831782E-01
 cg2d: Sum(rhs),rhsMax =  -6.46658591818642E-03  2.12591051057476E-01
 cg2d: Sum(rhs),rhsMax =  -6.46718338964496E-03  2.12596182743815E-01
 cg2d: Sum(rhs),rhsMax =  -6.46778140005020E-03  2.12601311892651E-01
 cg2d: Sum(rhs),rhsMax =  -6.46837996110679E-03  2.12606438505859E-01
 cg2d: Sum(rhs),rhsMax =  -6.46897908486381E-03  2.12611562585307E-01
 cg2d: Sum(rhs),rhsMax =  -6.46957878265410E-03  2.12616684132884E-01
 cg2d: Sum(rhs),rhsMax =  -6.47017906661515E-03  2.12621803150472E-01
 cg2d: Sum(rhs),rhsMax =  -6.47077994756032E-03  2.12626919639974E-01
 cg2d: Sum(rhs),rhsMax =  -6.47138143793274E-03  2.12632033603293E-01
 cg2d: Sum(rhs),rhsMax =  -6.47198354811627E-03  2.12637145042337E-01
 cg2d: Sum(rhs),rhsMax =  -6.47258629016182E-03  2.12642253959026E-01
 cg2d: Sum(rhs),rhsMax =  -6.47318967439340E-03  2.12647360355287E-01
 cg2d: Sum(rhs),rhsMax =  -6.47379371221243E-03  2.12652464233043E-01
 cg2d: Sum(rhs),rhsMax =  -6.47439841464295E-03  2.12657565594244E-01
 cg2d: Sum(rhs),rhsMax =  -6.47500379192420E-03  2.12662664440833E-01
 cg2d: Sum(rhs),rhsMax =  -6.47560985588175E-03  2.12667760774763E-01
 cg2d: Sum(rhs),rhsMax =  -6.47621661604455E-03  2.12672854597998E-01
 cg2d: Sum(rhs),rhsMax =  -6.47682408345767E-03  2.12677945912506E-01
 cg2d: Sum(rhs),rhsMax =  -6.47743226826858E-03  2.12683034720253E-01
 cg2d: Sum(rhs),rhsMax =  -6.47804118058198E-03  2.12688121023235E-01
 cg2d: Sum(rhs),rhsMax =  -6.47865083099931E-03  2.12693204823430E-01
 cg2d: Sum(rhs),rhsMax =  -6.47926122892249E-03  2.12698286122846E-01
 cg2d: Sum(rhs),rhsMax =  -6.47987238436608E-03  2.12703364923477E-01
 cg2d: Sum(rhs),rhsMax =  -6.48048430706389E-03  2.12708441227338E-01
 cg2d: Sum(rhs),rhsMax =  -6.48109700702391E-03  2.12713515036452E-01
 cg2d: Sum(rhs),rhsMax =  -6.48171049367843E-03  2.12718586352832E-01
 cg2d: Sum(rhs),rhsMax =  -6.48232477648855E-03  2.12723655178520E-01
 cg2d: Sum(rhs),rhsMax =  -6.48293986412510E-03  2.12728721515557E-01
 cg2d: Sum(rhs),rhsMax =  -6.48355576666293E-03  2.12733785365984E-01
 cg2d: Sum(rhs),rhsMax =  -6.48417249246656E-03  2.12738846731851E-01
 cg2d: Sum(rhs),rhsMax =  -6.48479005094203E-03  2.12743905615234E-01
 cg2d: Sum(rhs),rhsMax =  -6.48540845065312E-03  2.12748962018186E-01
 cg2d: Sum(rhs),rhsMax =  -6.48602770058061E-03  2.12754015942793E-01
 cg2d: Sum(rhs),rhsMax =  -6.48664780870025E-03  2.12759067391128E-01
 cg2d: Sum(rhs),rhsMax =  -6.48726878407380E-03  2.12764116365284E-01
 cg2d: Sum(rhs),rhsMax =  -6.48789063514284E-03  2.12769162867361E-01
 cg2d: Sum(rhs),rhsMax =  -6.48851336966576E-03  2.12774206899456E-01
 cg2d: Sum(rhs),rhsMax =  -6.48913699561678E-03  2.12779248463687E-01
 cg2d: Sum(rhs),rhsMax =  -6.48976152151520E-03  2.12784287562173E-01
 cg2d: Sum(rhs),rhsMax =  -6.49038695458286E-03  2.12789324197031E-01
 cg2d: Sum(rhs),rhsMax =  -6.49101330334730E-03  2.12794358370395E-01
 cg2d: Sum(rhs),rhsMax =  -6.49164057427091E-03  2.12799390084407E-01
 cg2d: Sum(rhs),rhsMax =  -6.49226877623395E-03  2.12804419341213E-01
 cg2d: Sum(rhs),rhsMax =  -6.49289791555075E-03  2.12809446142969E-01
 cg2d: Sum(rhs),rhsMax =  -6.49352799960931E-03  2.12814470491825E-01
 cg2d: Sum(rhs),rhsMax =  -6.49415903634722E-03  2.12819492389961E-01
 cg2d: Sum(rhs),rhsMax =  -6.49479103134660E-03  2.12824511839546E-01
 cg2d: Sum(rhs),rhsMax =  -6.49542399212557E-03  2.12829528842759E-01
 cg2d: Sum(rhs),rhsMax =  -6.49605792569349E-03  2.12834543401798E-01
 cg2d: Sum(rhs),rhsMax =  -6.49669283837337E-03  2.12839555518848E-01
 cg2d: Sum(rhs),rhsMax =  -6.49732873699006E-03  2.12844565196124E-01
 cg2d: Sum(rhs),rhsMax =  -6.49796562789030E-03  2.12849572435818E-01
 cg2d: Sum(rhs),rhsMax =  -6.49860351685975E-03  2.12854577240169E-01
 cg2d: Sum(rhs),rhsMax =  -6.49924241009809E-03  2.12859579611387E-01
 cg2d: Sum(rhs),rhsMax =  -6.49988231395602E-03  2.12864579551708E-01
 cg2d: Sum(rhs),rhsMax =  -6.50052323428010E-03  2.12869577063369E-01
 cg2d: Sum(rhs),rhsMax =  -6.50116517635881E-03  2.12874572148617E-01
 cg2d: Sum(rhs),rhsMax =  -6.50180814653619E-03  2.12879564809702E-01
 cg2d: Sum(rhs),rhsMax =  -6.50245214966082E-03  2.12884555048883E-01
 cg2d: Sum(rhs),rhsMax =  -6.50309719206128E-03  2.12889542868431E-01
 cg2d: Sum(rhs),rhsMax =  -6.50374327807761E-03  2.12894528270620E-01
 cg2d: Sum(rhs),rhsMax =  -6.50439041387021E-03  2.12899511257727E-01
 cg2d: Sum(rhs),rhsMax =  -6.50503860331689E-03  2.12904491832037E-01
 cg2d: Sum(rhs),rhsMax =  -6.50568785224614E-03  2.12909469995852E-01
 cg2d: Sum(rhs),rhsMax =  -6.50633816544660E-03  2.12914445751469E-01
 cg2d: Sum(rhs),rhsMax =  -6.50698954729121E-03  2.12919419101195E-01
(PID.TID 0000.0001)      cg2d_init_res =   4.23284771962401E-04
(PID.TID 0000.0001)      cg2d_iters(min,last) =      -1      68
(PID.TID 0000.0001)      cg2d_last_res =   9.77659589854733E-08
(PID.TID 0000.0001) // =======================================================
(PID.TID 0000.0001) // Begin MONITOR dynamic field statistics
(PID.TID 0000.0001) // =======================================================
(PID.TID 0000.0001) %MON time_tsnumber                =                 15336
(PID.TID 0000.0001) %MON time_secondsf                =   1.8403200000000E+07
(PID.TID 0000.0001) %MON dynstat_eta_max              =   3.2785424443814E-01
(PID.TID 0000.0001) %MON dynstat_eta_min              =  -1.0554804357732E-01
(PID.TID 0000.0001) %MON dynstat_eta_mean             =   6.9246285049896E-06
(PID.TID 0000.0001) %MON dynstat_eta_sd               =   1.2751483351574E-01
(PID.TID 0000.0001) %MON dynstat_eta_del2             =   3.3301769733706E-05
(PID.TID 0000.0001) %MON dynstat_uvel_max             =   1.6198791534583E-01
(PID.TID 0000.0001) %MON dynstat_uvel_min             =  -1.2418159631119E-01
(PID.TID 0000.0001) %MON dynstat_uvel_mean            =   4.7364895046776E-08
(PID.TID 0000.0001) %MON dynstat_uvel_sd              =   5.2248783774354E-02
(PID.TID 0000.0001) %MON dynstat_uvel_del2            =   7.3847066933959E-05
(PID.TID 0000.0001) %MON dynstat_vvel_max             =   1.0597785772329E-01
(PID.TID 0000.0001) %MON dynstat_vvel_min             =  -1.3336461467997E-01
(PID.TID 0000.0001) %MON dynstat_vvel_mean            =   1.0304997523177E-07
(PID.TID 0000.0001) %MON dynstat_vvel_sd              =   4.7616835375202E-02
(PID.TID 0000.0001) %MON dynstat_vvel_del2            =   3.7800848686893E-05
(PID.TID 0000.0001) %MON dynstat_wvel_max             =   1.3594829686681E-08
(PID.TID 0000.0001) %MON dynstat_wvel_min             =  -5.4652215659735E-09
(PID.TID 0000.0001) %MON dynstat_wvel_mean            =  -1.2081071392661E-20
(PID.TID 0000.0001) %MON dynstat_wvel_sd              =   4.8240927984799E-09
(PID.TID 0000.0001) %MON dynstat_wvel_del2            =   1.4782846450864E-12
(PID.TID 0000.0001) %MON dynstat_theta_max            =   2.0000000000000E+01
(PID.TID 0000.0001) %MON dynstat_theta_min            =   2.0000000000000E+01
(PID.TID 0000.0001) %MON dynstat_theta_mean           =   2.0000000000000E+01
(PID.TID 0000.0001) %MON dynstat_theta_sd             =   3.8014036363165E-13
(PID.TID 0000.0001) %MON dynstat_theta_del2           =   0.0000000000000E+00
(PID.TID 0000.0001) %MON dynstat_salt_max             =   3.0000000000000E+01
(PID.TID 0000.0001) %MON dynstat_salt_min             =   3.0000000000000E+01
(PID.TID 0000.0001) %MON dynstat_salt_mean            =   2.9999999999999E+01
(PID.TID 0000.0001) %MON dynstat_salt_sd              =   5.5777604757167E-13
(PID.TID 0000.0001) %MON dynstat_salt_del2            =   0.0000000000000E+00
(PID.TID 0000.0001) %MON trAdv_CFL_u_max              =   9.7182050047871E-03
(PID.TID 0000.0001) %MON trAdv_CFL_v_max              =   7.9910753211148E-03
(PID.TID 0000.0001) %MON trAdv_CFL_w_max              =   3.6058487945014E-09
(PID.TID 0000.0001) %MON advcfl_uvel_max              =   9.7192749207497E-03
(PID.TID 0000.0001) %MON advcfl_vvel_max              =   8.0018768807982E-03
(PID.TID 0000.0001) %MON advcfl_wvel_max              =   6.5255182496068E-09
(PID.TID 0000.0001) %MON advcfl_W_hf_max              =   0.0000000000000E+00
(PID.TID 0000.0001) %MON pe_b_mean                    =   1.6670349735479E-05
(PID.TID 0000.0001) %MON ke_max                       =   1.3130067441052E-02
(PID.TID 0000.0001) %MON ke_mean                      =   2.4527025075838E-03
(PID.TID 0000.0001) %MON ke_vol                       =   6.8893493896486E+15
(PID.TID 0000.0001) %MON vort_r_min                   =  -9.9508725556382E-07
(PID.TID 0000.0001) %MON vort_r_max                   =   3.4866035368667E-06
(PID.TID 0000.0001) %MON vort_a_mean                  =   1.0600000000000E-04
(PID.TID 0000.0001) %MON vort_a_sd                    =   3.5704165367754E-06
(PID.TID 0000.0001) %MON vort_p_mean                  =   1.1652272308690E-04
(PID.TID 0000.0001) %MON vort_p_sd                    =   4.1790410884486E-05
(PID.TID 0000.0001) %MON surfExpan_theta_mean         =  -2.4162968909675E-19
(PID.TID 0000.0001) %MON surfExpan_salt_mean          =  -3.6243853350647E-19
(PID.TID 0000.0001) // =======================================================
(PID.TID 0000.0001) // End MONITOR dynamic field statistics
(PID.TID 0000.0001) // =======================================================
 cg2d: Sum(rhs),rhsMax =  -6.50764200239833E-03  2.12924390047356E-01
 cg2d: Sum(rhs),rhsMax =  -6.50829553549313E-03  2.12929358592265E-01
 cg2d: Sum(rhs),rhsMax =  -6.50895015088439E-03  2.12934324738253E-01
 cg2d: Sum(rhs),rhsMax =  -6.50960585289254E-03  2.12939288487659E-01
 cg2d: Sum(rhs),rhsMax =  -6.51026264516436E-03  2.12944249842829E-01
 cg2d: Sum(rhs),rhsMax =  -6.51092053260613E-03  2.12949208806111E-01
 cg2d: Sum(rhs),rhsMax =  -6.51157951818770E-03  2.12954165379866E-01
 cg2d: Sum(rhs),rhsMax =  -6.51223960644587E-03  2.12959119566454E-01
 cg2d: Sum(rhs),rhsMax =  -6.51290080094330E-03  2.12964071368252E-01
 cg2d: Sum(rhs),rhsMax =  -6.51356310550134E-03  2.12969020787633E-01
 cg2d: Sum(rhs),rhsMax =  -6.51422652306938E-03  2.12973967826990E-01
 cg2d: Sum(rhs),rhsMax =  -6.51489105731914E-03  2.12978912488713E-01
 cg2d: Sum(rhs),rhsMax =  -6.51555671177727E-03  2.12983854775200E-01
 cg2d: Sum(rhs),rhsMax =  -6.51622348901290E-03  2.12988794688861E-01
 cg2d: Sum(rhs),rhsMax =  -6.51689139276466E-03  2.12993732232111E-01
 cg2d: Sum(rhs),rhsMax =  -6.51756042610047E-03  2.12998667407362E-01
 cg2d: Sum(rhs),rhsMax =  -6.51823059119913E-03  2.13003600217052E-01
 cg2d: Sum(rhs),rhsMax =  -6.51890189124567E-03  2.13008530663616E-01
 cg2d: Sum(rhs),rhsMax =  -6.51957432901648E-03  2.13013458749488E-01
 cg2d: Sum(rhs),rhsMax =  -6.52024790675558E-03  2.13018384477117E-01
 cg2d: Sum(rhs),rhsMax =  -6.52092262686946E-03  2.13023307848966E-01
 cg2d: Sum(rhs),rhsMax =  -6.52159849195479E-03  2.13028228867492E-01
 cg2d: Sum(rhs),rhsMax =  -6.52227550456651E-03  2.13033147535171E-01
 cg2d: Sum(rhs),rhsMax =  -6.52295366631625E-03  2.13038063854473E-01
 cg2d: Sum(rhs),rhsMax =  -6.52363297963818E-03  2.13042977827881E-01
 cg2d: Sum(rhs),rhsMax =  -6.52431344651674E-03  2.13047889457889E-01
 cg2d: Sum(rhs),rhsMax =  -6.52499506876270E-03  2.13052798746995E-01
 cg2d: Sum(rhs),rhsMax =  -6.52567784837293E-03  2.13057705697699E-01
 cg2d: Sum(rhs),rhsMax =  -6.52636178645794E-03  2.13062610312516E-01
 cg2d: Sum(rhs),rhsMax =  -6.52704688507354E-03  2.13067512593962E-01
 cg2d: Sum(rhs),rhsMax =  -6.52773314554677E-03  2.13072412544559E-01
 cg2d: Sum(rhs),rhsMax =  -6.52842056961006E-03  2.13077310166851E-01
 cg2d: Sum(rhs),rhsMax =  -6.52910915854355E-03  2.13082205463361E-01
 cg2d: Sum(rhs),rhsMax =  -6.52979891356953E-03  2.13087098436646E-01
 cg2d: Sum(rhs),rhsMax =  -6.53048983600862E-03  2.13091989089251E-01
 cg2d: Sum(rhs),rhsMax =  -6.53118192650940E-03  2.13096877423737E-01
 cg2d: Sum(rhs),rhsMax =  -6.53187518651195E-03  2.13101763442677E-01
 cg2d: Sum(rhs),rhsMax =  -6.53256961675362E-03  2.13106647148634E-01
 cg2d: Sum(rhs),rhsMax =  -6.53326521796454E-03  2.13111528544197E-01
 cg2d: Sum(rhs),rhsMax =  -6.53396199113259E-03  2.13116407631948E-01
 cg2d: Sum(rhs),rhsMax =  -6.53465993662283E-03  2.13121284414480E-01
 cg2d: Sum(rhs),rhsMax =  -6.53535905547286E-03  2.13126158894400E-01
 cg2d: Sum(rhs),rhsMax =  -6.53605934786555E-03  2.13131031074308E-01
 cg2d: Sum(rhs),rhsMax =  -6.53676081462815E-03  2.13135900956821E-01
 cg2d: Sum(rhs),rhsMax =  -6.53746345570963E-03  2.13140768544559E-01
 cg2d: Sum(rhs),rhsMax =  -6.53816727147605E-03  2.13145633840157E-01
 cg2d: Sum(rhs),rhsMax =  -6.53887226218744E-03  2.13150496846239E-01
 cg2d: Sum(rhs),rhsMax =  -6.53957842795879E-03  2.13155357565452E-01
 cg2d: Sum(rhs),rhsMax =  -6.54028576890679E-03  2.13160216000447E-01
 cg2d: Sum(rhs),rhsMax =  -6.54099428486362E-03  2.13165072153876E-01
 cg2d: Sum(rhs),rhsMax =  -6.54170397599631E-03  2.13169926028395E-01
 cg2d: Sum(rhs),rhsMax =  -6.54241484185692E-03  2.13174777626688E-01
 cg2d: Sum(rhs),rhsMax =  -6.54312688228925E-03  2.13179626951420E-01
 cg2d: Sum(rhs),rhsMax =  -6.54384009742471E-03  2.13184474005276E-01
 cg2d: Sum(rhs),rhsMax =  -6.54455448637835E-03  2.13189318790941E-01
 cg2d: Sum(rhs),rhsMax =  -6.54527004872178E-03  2.13194161311121E-01
 cg2d: Sum(rhs),rhsMax =  -6.54598678416657E-03  2.13199001568506E-01
 cg2d: Sum(rhs),rhsMax =  -6.54670469257268E-03  2.13203839565815E-01
 cg2d: Sum(rhs),rhsMax =  -6.54742377202375E-03  2.13208675305763E-01
 cg2d: Sum(rhs),rhsMax =  -6.54814402335418E-03  2.13213508791071E-01
 cg2d: Sum(rhs),rhsMax =  -6.54886544446404E-03  2.13218340024469E-01
 cg2d: Sum(rhs),rhsMax =  -6.54958803527741E-03  2.13223169008690E-01
 cg2d: Sum(rhs),rhsMax =  -6.55031179509314E-03  2.13227995746484E-01
 cg2d: Sum(rhs),rhsMax =  -6.55103672248506E-03  2.13232820240602E-01
 cg2d: Sum(rhs),rhsMax =  -6.55176281667032E-03  2.13237642493790E-01
 cg2d: Sum(rhs),rhsMax =  -6.55249007641805E-03  2.13242462508827E-01
 cg2d: Sum(rhs),rhsMax =  -6.55321850105268E-03  2.13247280288468E-01
 cg2d: Sum(rhs),rhsMax =  -6.55394808849655E-03  2.13252095835499E-01
 cg2d: Sum(rhs),rhsMax =  -6.55467883863799E-03  2.13256909152704E-01
 cg2d: Sum(rhs),rhsMax =  -6.55541074918638E-03  2.13261720242866E-01
 cg2d: Sum(rhs),rhsMax =  -6.55614381970087E-03  2.13266529108788E-01
 cg2d: Sum(rhs),rhsMax =  -6.55687804796498E-03  2.13271335753269E-01
(PID.TID 0000.0001)      cg2d_init_res =   4.18736422015146E-04
(PID.TID 0000.0001)      cg2d_iters(min,last) =      -1      68
(PID.TID 0000.0001)      cg2d_last_res =   9.76876968268840E-08
(PID.TID 0000.0001) // =======================================================
(PID.TID 0000.0001) // Begin MONITOR dynamic field statistics
(PID.TID 0000.0001) // =======================================================
(PID.TID 0000.0001) %MON time_tsnumber                =                 15408
(PID.TID 0000.0001) %MON time_secondsf                =   1.8489600000000E+07
(PID.TID 0000.0001) %MON dynstat_eta_max              =   3.2901776720213E-01
(PID.TID 0000.0001) %MON dynstat_eta_min              =  -1.0581711333481E-01
(PID.TID 0000.0001) %MON dynstat_eta_mean             =   6.9893292243160E-06
(PID.TID 0000.0001) %MON dynstat_eta_sd               =   1.2790422125508E-01
(PID.TID 0000.0001) %MON dynstat_eta_del2             =   3.3379941605587E-05
(PID.TID 0000.0001) %MON dynstat_uvel_max             =   1.6234486442460E-01
(PID.TID 0000.0001) %MON dynstat_uvel_min             =  -1.2461758478482E-01
(PID.TID 0000.0001) %MON dynstat_uvel_mean            =   4.8606372464979E-08
(PID.TID 0000.0001) %MON dynstat_uvel_sd              =   5.2409724025870E-02
(PID.TID 0000.0001) %MON dynstat_uvel_del2            =   7.3942879358639E-05
(PID.TID 0000.0001) %MON dynstat_vvel_max             =   1.0641980176541E-01
(PID.TID 0000.0001) %MON dynstat_vvel_min             =  -1.3382908318748E-01
(PID.TID 0000.0001) %MON dynstat_vvel_mean            =   9.6139778098469E-08
(PID.TID 0000.0001) %MON dynstat_vvel_sd              =   4.7754038767378E-02
(PID.TID 0000.0001) %MON dynstat_vvel_del2            =   3.7697582665686E-05
(PID.TID 0000.0001) %MON dynstat_wvel_max             =   1.3611348638951E-08
(PID.TID 0000.0001) %MON dynstat_wvel_min             =  -5.4057671257760E-09
(PID.TID 0000.0001) %MON dynstat_wvel_mean            =   2.9042733886955E-21
(PID.TID 0000.0001) %MON dynstat_wvel_sd              =   4.8217725437981E-09
(PID.TID 0000.0001) %MON dynstat_wvel_del2            =   1.4697478858575E-12
(PID.TID 0000.0001) %MON dynstat_theta_max            =   2.0000000000000E+01
(PID.TID 0000.0001) %MON dynstat_theta_min            =   2.0000000000000E+01
(PID.TID 0000.0001) %MON dynstat_theta_mean           =   2.0000000000000E+01
(PID.TID 0000.0001) %MON dynstat_theta_sd             =   3.8014036363165E-13
(PID.TID 0000.0001) %MON dynstat_theta_del2           =   0.0000000000000E+00
(PID.TID 0000.0001) %MON dynstat_salt_max             =   3.0000000000000E+01
(PID.TID 0000.0001) %MON dynstat_salt_min             =   3.0000000000000E+01
(PID.TID 0000.0001) %MON dynstat_salt_mean            =   2.9999999999999E+01
(PID.TID 0000.0001) %MON dynstat_salt_sd              =   5.5777604757167E-13
(PID.TID 0000.0001) %MON dynstat_salt_del2            =   0.0000000000000E+00
(PID.TID 0000.0001) %MON trAdv_CFL_u_max              =   9.7396289955599E-03
(PID.TID 0000.0001) %MON trAdv_CFL_v_max              =   8.0188980234700E-03
(PID.TID 0000.0001) %MON trAdv_CFL_w_max              =   3.6107312277075E-09
(PID.TID 0000.0001) %MON advcfl_uvel_max              =   9.7406918654758E-03
(PID.TID 0000.0001) %MON advcfl_vvel_max              =   8.0297449912485E-03
(PID.TID 0000.0001) %MON advcfl_wvel_max              =   6.5334473466966E-09
(PID.TID 0000.0001) %MON advcfl_W_hf_max              =   0.0000000000000E+00
(PID.TID 0000.0001) %MON pe_b_mean                    =   1.6772316552713E-05
(PID.TID 0000.0001) %MON ke_max                       =   1.3188885290934E-02
(PID.TID 0000.0001) %MON ke_mean                      =   2.4673918183850E-03
(PID.TID 0000.0001) %MON ke_vol                       =   6.8893493896486E+15
(PID.TID 0000.0001) %MON vort_r_min                   =  -9.9340056072564E-07
(PID.TID 0000.0001) %MON vort_r_max                   =   3.4937280099865E-06
(PID.TID 0000.0001) %MON vort_a_mean                  =   1.0600000000000E-04
(PID.TID 0000.0001) %MON vort_a_sd                    =   3.5706115906399E-06
(PID.TID 0000.0001) %MON vort_p_mean                  =   1.1652272308690E-04
(PID.TID 0000.0001) %MON vort_p_sd                    =   4.1790496651942E-05
(PID.TID 0000.0001) %MON surfExpan_theta_mean         =   5.8118290427147E-20
(PID.TID 0000.0001) %MON surfExpan_salt_mean          =   8.7165435363406E-20
(PID.TID 0000.0001) // =======================================================
(PID.TID 0000.0001) // End MONITOR dynamic field statistics
(PID.TID 0000.0001) // =======================================================
 cg2d: Sum(rhs),rhsMax =  -6.55761343312094E-03  2.13276140179126E-01
 cg2d: Sum(rhs),rhsMax =  -6.55834997361495E-03  2.13280942389174E-01
 cg2d: Sum(rhs),rhsMax =  -6.55908766701502E-03  2.13285742386236E-01
 cg2d: Sum(rhs),rhsMax =  -6.55982651279686E-03  2.13290540173140E-01
 cg2d: Sum(rhs),rhsMax =  -6.56056650892670E-03  2.13295335752723E-01
 cg2d: Sum(rhs),rhsMax =  -6.56130765341847E-03  2.13300129127831E-01
 cg2d: Sum(rhs),rhsMax =  -6.56204994481669E-03  2.13304920301316E-01
 cg2d: Sum(rhs),rhsMax =  -6.56279338112720E-03  2.13309709276027E-01
 cg2d: Sum(rhs),rhsMax =  -6.56353796094088E-03  2.13314496054837E-01
 cg2d: Sum(rhs),rhsMax =  -6.56428368193213E-03  2.13319280640613E-01
 cg2d: Sum(rhs),rhsMax =  -6.56503054191499E-03  2.13324063036232E-01
 cg2d: Sum(rhs),rhsMax =  -6.56577853976948E-03  2.13328843244575E-01
 cg2d: Sum(rhs),rhsMax =  -6.56652767239992E-03  2.13333621268532E-01
 cg2d: Sum(rhs),rhsMax =  -6.56727793802276E-03  2.13338397111000E-01
 cg2d: Sum(rhs),rhsMax =  -6.56802933549928E-03  2.13343170774886E-01
 cg2d: Sum(rhs),rhsMax =  -6.56878186143101E-03  2.13347942263096E-01
 cg2d: Sum(rhs),rhsMax =  -6.56953551403566E-03  2.13352711578547E-01
 cg2d: Sum(rhs),rhsMax =  -6.57029029097632E-03  2.13357478724160E-01
 cg2d: Sum(rhs),rhsMax =  -6.57104619036688E-03  2.13362243702870E-01
 cg2d: Sum(rhs),rhsMax =  -6.57180320953537E-03  2.13367006517610E-01
 cg2d: Sum(rhs),rhsMax =  -6.57256134578037E-03  2.13371767171312E-01
 cg2d: Sum(rhs),rhsMax =  -6.57332059711343E-03  2.13376525666949E-01
 cg2d: Sum(rhs),rhsMax =  -6.57408096097724E-03  2.13381282007455E-01
 cg2d: Sum(rhs),rhsMax =  -6.57484243487187E-03  2.13386036195802E-01
 cg2d: Sum(rhs),rhsMax =  -6.57560501656920E-03  2.13390788234956E-01
 cg2d: Sum(rhs),rhsMax =  -6.57636870271908E-03  2.13395538127892E-01
 cg2d: Sum(rhs),rhsMax =  -6.57713349100989E-03  2.13400285877595E-01
 cg2d: Sum(rhs),rhsMax =  -6.57789937978620E-03  2.13405031487048E-01
 cg2d: Sum(rhs),rhsMax =  -6.57866636560048E-03  2.13409774959246E-01
 cg2d: Sum(rhs),rhsMax =  -6.57943444537258E-03  2.13414516297193E-01
 cg2d: Sum(rhs),rhsMax =  -6.58020361692011E-03  2.13419255503901E-01
 cg2d: Sum(rhs),rhsMax =  -6.58097387724254E-03  2.13423992582374E-01
 cg2d: Sum(rhs),rhsMax =  -6.58174522378910E-03  2.13428727535639E-01
 cg2d: Sum(rhs),rhsMax =  -6.58251765316770E-03  2.13433460366719E-01
 cg2d: Sum(rhs),rhsMax =  -6.58329116324611E-03  2.13438191078653E-01
 cg2d: Sum(rhs),rhsMax =  -6.58406575031997E-03  2.13442919674474E-01
 cg2d: Sum(rhs),rhsMax =  -6.58484141232416E-03  2.13447646157235E-01
 cg2d: Sum(rhs),rhsMax =  -6.58561814544702E-03  2.13452370529985E-01
 cg2d: Sum(rhs),rhsMax =  -6.58639594749293E-03  2.13457092795779E-01
 cg2d: Sum(rhs),rhsMax =  -6.58717481474042E-03  2.13461812957691E-01
 cg2d: Sum(rhs),rhsMax =  -6.58795474473318E-03  2.13466531018792E-01
 cg2d: Sum(rhs),rhsMax =  -6.58873573394846E-03  2.13471246982154E-01
 cg2d: Sum(rhs),rhsMax =  -6.58951777967481E-03  2.13475960850865E-01
 cg2d: Sum(rhs),rhsMax =  -6.59030087846015E-03  2.13480672628009E-01
 cg2d: Sum(rhs),rhsMax =  -6.59108502721879E-03  2.13485382316701E-01
 cg2d: Sum(rhs),rhsMax =  -6.59187022299561E-03  2.13490089920026E-01
 cg2d: Sum(rhs),rhsMax =  -6.59265646210987E-03  2.13494795441106E-01
 cg2d: Sum(rhs),rhsMax =  -6.59344374183829E-03  2.13499498883053E-01
 cg2d: Sum(rhs),rhsMax =  -6.59423205818816E-03  2.13504200248989E-01
 cg2d: Sum(rhs),rhsMax =  -6.59502140874327E-03  2.13508899542049E-01
 cg2d: Sum(rhs),rhsMax =  -6.59581179001494E-03  2.13513596765356E-01
 cg2d: Sum(rhs),rhsMax =  -6.59660319847300E-03  2.13518291922065E-01
 cg2d: Sum(rhs),rhsMax =  -6.59739563042343E-03  2.13522985015316E-01
 cg2d: Sum(rhs),rhsMax =  -6.59818908305845E-03  2.13527676048266E-01
 cg2d: Sum(rhs),rhsMax =  -6.59898355291593E-03  2.13532365024074E-01
 cg2d: Sum(rhs),rhsMax =  -6.59977903624628E-03  2.13537051945910E-01
 cg2d: Sum(rhs),rhsMax =  -6.60057552956470E-03  2.13541736816945E-01
 cg2d: Sum(rhs),rhsMax =  -6.60137302995433E-03  2.13546419640361E-01
 cg2d: Sum(rhs),rhsMax =  -6.60217153375375E-03  2.13551100419334E-01
 cg2d: Sum(rhs),rhsMax =  -6.60297103735403E-03  2.13555779157069E-01
 cg2d: Sum(rhs),rhsMax =  -6.60377153714547E-03  2.13560455856759E-01
 cg2d: Sum(rhs),rhsMax =  -6.60457302931035E-03  2.13565130521604E-01
 cg2d: Sum(rhs),rhsMax =  -6.60537551067397E-03  2.13569803154819E-01
 cg2d: Sum(rhs),rhsMax =  -6.60617897804514E-03  2.13574473759619E-01
 cg2d: Sum(rhs),rhsMax =  -6.60698342682874E-03  2.13579142339230E-01
 cg2d: Sum(rhs),rhsMax =  -6.60778885432114E-03  2.13583808896878E-01
 cg2d: Sum(rhs),rhsMax =  -6.60859525634818E-03  2.13588473435800E-01
 cg2d: Sum(rhs),rhsMax =  -6.60940262967497E-03  2.13593135959232E-01
 cg2d: Sum(rhs),rhsMax =  -6.61021096961386E-03  2.13597796470430E-01
 cg2d: Sum(rhs),rhsMax =  -6.61102027367098E-03  2.13602454972644E-01
 cg2d: Sum(rhs),rhsMax =  -6.61183053787556E-03  2.13607111469128E-01
 cg2d: Sum(rhs),rhsMax =  -6.61264175828686E-03  2.13611765963163E-01
(PID.TID 0000.0001)      cg2d_init_res =   4.14648770141094E-04
(PID.TID 0000.0001)      cg2d_iters(min,last) =      -1      68
(PID.TID 0000.0001)      cg2d_last_res =   9.87394709805155E-08
(PID.TID 0000.0001) // =======================================================
(PID.TID 0000.0001) // Begin MONITOR dynamic field statistics
(PID.TID 0000.0001) // =======================================================
(PID.TID 0000.0001) %MON time_tsnumber                =                 15480
(PID.TID 0000.0001) %MON time_secondsf                =   1.8576000000000E+07
(PID.TID 0000.0001) %MON dynstat_eta_max              =   3.3018011241306E-01
(PID.TID 0000.0001) %MON dynstat_eta_min              =  -1.0609865648538E-01
(PID.TID 0000.0001) %MON dynstat_eta_mean             =   7.0600922493091E-06
(PID.TID 0000.0001) %MON dynstat_eta_sd               =   1.2829322882309E-01
(PID.TID 0000.0001) %MON dynstat_eta_del2             =   3.3457417723467E-05
(PID.TID 0000.0001) %MON dynstat_uvel_max             =   1.6269132318197E-01
(PID.TID 0000.0001) %MON dynstat_uvel_min             =  -1.2504136923917E-01
(PID.TID 0000.0001) %MON dynstat_uvel_mean            =   4.8235422325434E-08
(PID.TID 0000.0001) %MON dynstat_uvel_sd              =   5.2568462829858E-02
(PID.TID 0000.0001) %MON dynstat_uvel_del2            =   7.4033063334315E-05
(PID.TID 0000.0001) %MON dynstat_vvel_max             =   1.0685757566346E-01
(PID.TID 0000.0001) %MON dynstat_vvel_min             =  -1.3430353284027E-01
(PID.TID 0000.0001) %MON dynstat_vvel_mean            =   8.8959197553414E-08
(PID.TID 0000.0001) %MON dynstat_vvel_sd              =   4.7893447579188E-02
(PID.TID 0000.0001) %MON dynstat_vvel_del2            =   3.7599833096359E-05
(PID.TID 0000.0001) %MON dynstat_wvel_max             =   1.3631250330363E-08
(PID.TID 0000.0001) %MON dynstat_wvel_min             =  -5.3136459024972E-09
(PID.TID 0000.0001) %MON dynstat_wvel_mean            =  -5.7638134068030E-21
(PID.TID 0000.0001) %MON dynstat_wvel_sd              =   4.8180042157135E-09
(PID.TID 0000.0001) %MON dynstat_wvel_del2            =   1.4624006979377E-12
(PID.TID 0000.0001) %MON dynstat_theta_max            =   2.0000000000000E+01
(PID.TID 0000.0001) %MON dynstat_theta_min            =   2.0000000000000E+01
(PID.TID 0000.0001) %MON dynstat_theta_mean           =   2.0000000000000E+01
(PID.TID 0000.0001) %MON dynstat_theta_sd             =   3.8014036363165E-13
(PID.TID 0000.0001) %MON dynstat_theta_del2           =   0.0000000000000E+00
(PID.TID 0000.0001) %MON dynstat_salt_max             =   3.0000000000000E+01
(PID.TID 0000.0001) %MON dynstat_salt_min             =   3.0000000000000E+01
(PID.TID 0000.0001) %MON dynstat_salt_mean            =   2.9999999999999E+01
(PID.TID 0000.0001) %MON dynstat_salt_sd              =   5.5777604757167E-13
(PID.TID 0000.0001) %MON dynstat_salt_del2            =   0.0000000000000E+00
(PID.TID 0000.0001) %MON trAdv_CFL_u_max              =   9.7604236019437E-03
(PID.TID 0000.0001) %MON trAdv_CFL_v_max              =   8.0473204473288E-03
(PID.TID 0000.0001) %MON trAdv_CFL_w_max              =   3.6160073548161E-09
(PID.TID 0000.0001) %MON advcfl_uvel_max              =   9.7614793909181E-03
(PID.TID 0000.0001) %MON advcfl_vvel_max              =   8.0582119704162E-03
(PID.TID 0000.0001) %MON advcfl_wvel_max              =   6.5430001585744E-09
(PID.TID 0000.0001) %MON advcfl_W_hf_max              =   0.0000000000000E+00
(PID.TID 0000.0001) %MON pe_b_mean                    =   1.6874494259447E-05
(PID.TID 0000.0001) %MON ke_max                       =   1.3246157267462E-02
(PID.TID 0000.0001) %MON ke_mean                      =   2.4821151126875E-03
(PID.TID 0000.0001) %MON ke_vol                       =   6.8893493896486E+15
(PID.TID 0000.0001) %MON vort_r_min                   =  -9.9149472905708E-07
(PID.TID 0000.0001) %MON vort_r_max                   =   3.5006211044388E-06
(PID.TID 0000.0001) %MON vort_a_mean                  =   1.0600000000000E-04
(PID.TID 0000.0001) %MON vort_a_sd                    =   3.5708051728494E-06
(PID.TID 0000.0001) %MON vort_p_mean                  =   1.1652272308690E-04
(PID.TID 0000.0001) %MON vort_p_sd                    =   4.1790579623449E-05
(PID.TID 0000.0001) %MON surfExpan_theta_mean         =  -1.1523234712109E-19
(PID.TID 0000.0001) %MON surfExpan_salt_mean          =  -1.7284978386872E-19
(PID.TID 0000.0001) // =======================================================
(PID.TID 0000.0001) // End MONITOR dynamic field statistics
(PID.TID 0000.0001) // =======================================================
 cg2d: Sum(rhs),rhsMax =  -6.61345393095829E-03  2.13616418458008E-01
 cg2d: Sum(rhs),rhsMax =  -6.61426705251328E-03  2.13621068956945E-01
 cg2d: Sum(rhs),rhsMax =  -6.61508111900775E-03  2.13625717463256E-01
 cg2d: Sum(rhs),rhsMax =  -6.61589612647572E-03  2.13630363980236E-01
 cg2d: Sum(rhs),rhsMax =  -6.61671207127247E-03  2.13635008511182E-01
 cg2d: Sum(rhs),rhsMax =  -6.61752894970568E-03  2.13639651059394E-01
 cg2d: Sum(rhs),rhsMax =  -6.61834675817281E-03  2.13644291628180E-01
 cg2d: Sum(rhs),rhsMax =  -6.61916549200178E-03  2.13648930220857E-01
 cg2d: Sum(rhs),rhsMax =  -6.61998514823045E-03  2.13653566840745E-01
 cg2d: Sum(rhs),rhsMax =  -6.62080572241502E-03  2.13658201491165E-01
 cg2d: Sum(rhs),rhsMax =  -6.62162721105508E-03  2.13662834175464E-01
 cg2d: Sum(rhs),rhsMax =  -6.62244960978111E-03  2.13667464896970E-01
 cg2d: Sum(rhs),rhsMax =  -6.62327291491149E-03  2.13672093659029E-01
 cg2d: Sum(rhs),rhsMax =  -6.62409712273753E-03  2.13676720464996E-01
 cg2d: Sum(rhs),rhsMax =  -6.62492222907013E-03  2.13681345318221E-01
 cg2d: Sum(rhs),rhsMax =  -6.62574822984068E-03  2.13685968222076E-01
 cg2d: Sum(rhs),rhsMax =  -6.62657512137138E-03  2.13690589179919E-01
 cg2d: Sum(rhs),rhsMax =  -6.62740289971186E-03  2.13695208195142E-01
 cg2d: Sum(rhs),rhsMax =  -6.62823156061715E-03  2.13699825271106E-01
 cg2d: Sum(rhs),rhsMax =  -6.62906109972860E-03  2.13704440411211E-01
 cg2d: Sum(rhs),rhsMax =  -6.62989151411503E-03  2.13709053618842E-01
 cg2d: Sum(rhs),rhsMax =  -6.63072279902919E-03  2.13713664897404E-01
 cg2d: Sum(rhs),rhsMax =  -6.63155495043004E-03  2.13718274250299E-01
 cg2d: Sum(rhs),rhsMax =  -6.63238796456455E-03  2.13722881680931E-01
 cg2d: Sum(rhs),rhsMax =  -6.63322183710227E-03  2.13727487192732E-01
 cg2d: Sum(rhs),rhsMax =  -6.63405656429415E-03  2.13732090789109E-01
 cg2d: Sum(rhs),rhsMax =  -6.63489214171017E-03  2.13736692473497E-01
 cg2d: Sum(rhs),rhsMax =  -6.63572856503565E-03  2.13741292249328E-01
 cg2d: Sum(rhs),rhsMax =  -6.63656583057446E-03  2.13745890120045E-01
 cg2d: Sum(rhs),rhsMax =  -6.63740393430273E-03  2.13750486089092E-01
 cg2d: Sum(rhs),rhsMax =  -6.63824287197266E-03  2.13755080159917E-01
 cg2d: Sum(rhs),rhsMax =  -6.63908263949624E-03  2.13759672335982E-01
 cg2d: Sum(rhs),rhsMax =  -6.63992323237605E-03  2.13764262620750E-01
 cg2d: Sum(rhs),rhsMax =  -6.64076464706355E-03  2.13768851017684E-01
 cg2d: Sum(rhs),rhsMax =  -6.64160687915329E-03  2.13773437530264E-01
 cg2d: Sum(rhs),rhsMax =  -6.64244992460810E-03  2.13778022161970E-01
 cg2d: Sum(rhs),rhsMax =  -6.64329377902952E-03  2.13782604916291E-01
 cg2d: Sum(rhs),rhsMax =  -6.64413843808774E-03  2.13787185796713E-01
 cg2d: Sum(rhs),rhsMax =  -6.64498389793323E-03  2.13791764806738E-01
 cg2d: Sum(rhs),rhsMax =  -6.64583015376756E-03  2.13796341949869E-01
 cg2d: Sum(rhs),rhsMax =  -6.64667720243654E-03  2.13800917229616E-01
 cg2d: Sum(rhs),rhsMax =  -6.64752503876706E-03  2.13805490649492E-01
 cg2d: Sum(rhs),rhsMax =  -6.64837365909181E-03  2.13810062213016E-01
 cg2d: Sum(rhs),rhsMax =  -6.64922305887305E-03  2.13814631923722E-01
 cg2d: Sum(rhs),rhsMax =  -6.65007323424777E-03  2.13819199785135E-01
 cg2d: Sum(rhs),rhsMax =  -6.65092418075951E-03  2.13823765800790E-01
 cg2d: Sum(rhs),rhsMax =  -6.65139055809290E-03  2.13828329760877E-01
 cg2d: Sum(rhs),rhsMax =  -6.65185740716350E-03  2.13832892079456E-01
 cg2d: Sum(rhs),rhsMax =  -6.65232509391390E-03  2.13837452549723E-01
 cg2d: Sum(rhs),rhsMax =  -6.65279341706261E-03  2.13842011221823E-01
 cg2d: Sum(rhs),rhsMax =  -6.65326238622809E-03  2.13846568080313E-01
 cg2d: Sum(rhs),rhsMax =  -6.65373198214484E-03  2.13851123118766E-01
 cg2d: Sum(rhs),rhsMax =  -6.65420221257957E-03  2.13855676331978E-01
 cg2d: Sum(rhs),rhsMax =  -6.65467307820125E-03  2.13860227725699E-01
 cg2d: Sum(rhs),rhsMax =  -6.65514457918957E-03  2.13864777304938E-01
 cg2d: Sum(rhs),rhsMax =  -6.65561670965404E-03  2.13869325074965E-01
 cg2d: Sum(rhs),rhsMax =  -6.65608946375929E-03  2.13873871039348E-01
 cg2d: Sum(rhs),rhsMax =  -6.65656283352945E-03  2.13878415201413E-01
 cg2d: Sum(rhs),rhsMax =  -6.65703681280776E-03  2.13882957564263E-01
 cg2d: Sum(rhs),rhsMax =  -6.65751139622019E-03  2.13887498131255E-01
 cg2d: Sum(rhs),rhsMax =  -6.65798657888348E-03  2.13892036905920E-01
 cg2d: Sum(rhs),rhsMax =  -6.65846235556012E-03  2.13896573891953E-01
 cg2d: Sum(rhs),rhsMax =  -6.65893872252081E-03  2.13901109093133E-01
 cg2d: Sum(rhs),rhsMax =  -6.65941567404302E-03  2.13905642513238E-01
 cg2d: Sum(rhs),rhsMax =  -6.65989320497451E-03  2.13910174156008E-01
 cg2d: Sum(rhs),rhsMax =  -6.66037131014383E-03  2.13914704025126E-01
 cg2d: Sum(rhs),rhsMax =  -6.66084998396826E-03  2.13919232124222E-01
 cg2d: Sum(rhs),rhsMax =  -6.66132922193263E-03  2.13923758456908E-01
 cg2d: Sum(rhs),rhsMax =  -6.66180901821975E-03  2.13928283026797E-01
 cg2d: Sum(rhs),rhsMax =  -6.66228936820224E-03  2.13932805837511E-01
 cg2d: Sum(rhs),rhsMax =  -6.66277026651269E-03  2.13937326892719E-01
 cg2d: Sum(rhs),rhsMax =  -6.66325170798808E-03  2.13941846196097E-01
(PID.TID 0000.0001)      cg2d_init_res =   4.11095125995073E-04
(PID.TID 0000.0001)      cg2d_iters(min,last) =      -1      71
(PID.TID 0000.0001)      cg2d_last_res =   9.46689655004588E-08
(PID.TID 0000.0001) // =======================================================
(PID.TID 0000.0001) // Begin MONITOR dynamic field statistics
(PID.TID 0000.0001) // =======================================================
(PID.TID 0000.0001) %MON time_tsnumber                =                 15552
(PID.TID 0000.0001) %MON time_secondsf                =   1.8662400000000E+07
(PID.TID 0000.0001) %MON dynstat_eta_max              =   3.3134100081317E-01
(PID.TID 0000.0001) %MON dynstat_eta_min              =  -1.0639252370699E-01
(PID.TID 0000.0001) %MON dynstat_eta_mean             =   7.1247553446195E-06
(PID.TID 0000.0001) %MON dynstat_eta_sd               =   1.2868190442315E-01
(PID.TID 0000.0001) %MON dynstat_eta_del2             =   3.3534267693766E-05
(PID.TID 0000.0001) %MON dynstat_uvel_max             =   1.6302738539809E-01
(PID.TID 0000.0001) %MON dynstat_uvel_min             =  -1.2545164388763E-01
(PID.TID 0000.0001) %MON dynstat_uvel_mean            =   4.6155054713492E-08
(PID.TID 0000.0001) %MON dynstat_uvel_sd              =   5.2724726942997E-02
(PID.TID 0000.0001) %MON dynstat_uvel_del2            =   7.4117792267995E-05
(PID.TID 0000.0001) %MON dynstat_vvel_max             =   1.0729210601486E-01
(PID.TID 0000.0001) %MON dynstat_vvel_min             =  -1.3478590088182E-01
(PID.TID 0000.0001) %MON dynstat_vvel_mean            =   8.1741041418786E-08
(PID.TID 0000.0001) %MON dynstat_vvel_sd              =   4.8035426882524E-02
(PID.TID 0000.0001) %MON dynstat_vvel_del2            =   3.7507888894665E-05
(PID.TID 0000.0001) %MON dynstat_wvel_max             =   1.3650708699133E-08
(PID.TID 0000.0001) %MON dynstat_wvel_min             =  -5.1926742156502E-09
(PID.TID 0000.0001) %MON dynstat_wvel_mean            =  -6.9291550314827E-21
(PID.TID 0000.0001) %MON dynstat_wvel_sd              =   4.8125062596707E-09
(PID.TID 0000.0001) %MON dynstat_wvel_del2            =   1.4595064701762E-12
(PID.TID 0000.0001) %MON dynstat_theta_max            =   2.0000000000000E+01
(PID.TID 0000.0001) %MON dynstat_theta_min            =   2.0000000000000E+01
(PID.TID 0000.0001) %MON dynstat_theta_mean           =   2.0000000000000E+01
(PID.TID 0000.0001) %MON dynstat_theta_sd             =   3.8014036363165E-13
(PID.TID 0000.0001) %MON dynstat_theta_del2           =   0.0000000000000E+00
(PID.TID 0000.0001) %MON dynstat_salt_max             =   3.0000000000000E+01
(PID.TID 0000.0001) %MON dynstat_salt_min             =   3.0000000000000E+01
(PID.TID 0000.0001) %MON dynstat_salt_mean            =   2.9999999999999E+01
(PID.TID 0000.0001) %MON dynstat_salt_sd              =   5.5777604757167E-13
(PID.TID 0000.0001) %MON dynstat_salt_del2            =   0.0000000000000E+00
(PID.TID 0000.0001) %MON trAdv_CFL_u_max              =   9.7805943248453E-03
(PID.TID 0000.0001) %MON trAdv_CFL_v_max              =   8.0762191463512E-03
(PID.TID 0000.0001) %MON trAdv_CFL_w_max              =   3.6211764316876E-09
(PID.TID 0000.0001) %MON advcfl_uvel_max              =   9.7816431238857E-03
(PID.TID 0000.0001) %MON advcfl_vvel_max              =   8.0871540529093E-03
(PID.TID 0000.0001) %MON advcfl_wvel_max              =   6.5523401755840E-09
(PID.TID 0000.0001) %MON advcfl_W_hf_max              =   0.0000000000000E+00
(PID.TID 0000.0001) %MON pe_b_mean                    =   1.6976894664639E-05
(PID.TID 0000.0001) %MON ke_max                       =   1.3301881157839E-02
(PID.TID 0000.0001) %MON ke_mean                      =   2.4968753388594E-03
(PID.TID 0000.0001) %MON ke_vol                       =   6.8893493896486E+15
(PID.TID 0000.0001) %MON vort_r_min                   =  -9.8938880545079E-07
(PID.TID 0000.0001) %MON vort_r_max                   =   3.5072847159906E-06
(PID.TID 0000.0001) %MON vort_a_mean                  =   1.0600000000000E-04
(PID.TID 0000.0001) %MON vort_a_sd                    =   3.5709976090960E-06
(PID.TID 0000.0001) %MON vort_p_mean                  =   1.1652272308690E-04
(PID.TID 0000.0001) %MON vort_p_sd                    =   4.1790659741353E-05
(PID.TID 0000.0001) %MON surfExpan_theta_mean         =  -1.3856688636022E-19
(PID.TID 0000.0001) %MON surfExpan_salt_mean          =  -2.0785506649190E-19
(PID.TID 0000.0001) // =======================================================
(PID.TID 0000.0001) // End MONITOR dynamic field statistics
(PID.TID 0000.0001) // =======================================================
 cg2d: Sum(rhs),rhsMax =  -6.66373368768729E-03  2.13946363751350E-01
 cg2d: Sum(rhs),rhsMax =  -6.66421620075082E-03  2.13950879562188E-01
 cg2d: Sum(rhs),rhsMax =  -6.66469924181472E-03  2.13955393632324E-01
 cg2d: Sum(rhs),rhsMax =  -6.66518280553318E-03  2.13959905965475E-01
 cg2d: Sum(rhs),rhsMax =  -6.66566688688803E-03  2.13964416565345E-01
 cg2d: Sum(rhs),rhsMax =  -6.66615148107115E-03  2.13968925435649E-01
 cg2d: Sum(rhs),rhsMax =  -6.66663658314998E-03  2.13973432580105E-01
 cg2d: Sum(rhs),rhsMax =  -6.66712218721802E-03  2.13977938002425E-01
 cg2d: Sum(rhs),rhsMax =  -6.66760828907183E-03  2.13982441706337E-01
 cg2d: Sum(rhs),rhsMax =  -6.66809488374023E-03  2.13986943695569E-01
 cg2d: Sum(rhs),rhsMax =  -6.66858196593831E-03  2.13991443973862E-01
 cg2d: Sum(rhs),rhsMax =  -6.66906953035892E-03  2.13995942544966E-01
 cg2d: Sum(rhs),rhsMax =  -6.66955757204942E-03  2.14000439412628E-01
 cg2d: Sum(rhs),rhsMax =  -6.67004608652744E-03  2.14004934580612E-01
 cg2d: Sum(rhs),rhsMax =  -6.67053506837815E-03  2.14009428052675E-01
 cg2d: Sum(rhs),rhsMax =  -6.67102451244459E-03  2.14013919832588E-01
 cg2d: Sum(rhs),rhsMax =  -6.67151441414464E-03  2.14018409924116E-01
 cg2d: Sum(rhs),rhsMax =  -6.67200476803152E-03  2.14022898331048E-01
 cg2d: Sum(rhs),rhsMax =  -6.67249556933632E-03  2.14027385057148E-01
 cg2d: Sum(rhs),rhsMax =  -6.67298681317370E-03  2.14031870106211E-01
 cg2d: Sum(rhs),rhsMax =  -6.67347849476498E-03  2.14036353482031E-01
 cg2d: Sum(rhs),rhsMax =  -6.67397060882072E-03  2.14040835188399E-01
 cg2d: Sum(rhs),rhsMax =  -6.67446315048301E-03  2.14045315229118E-01
 cg2d: Sum(rhs),rhsMax =  -6.67495611487906E-03  2.14049793608001E-01
 cg2d: Sum(rhs),rhsMax =  -6.67544949737412E-03  2.14054270328853E-01
 cg2d: Sum(rhs),rhsMax =  -6.67594329224235E-03  2.14058745395492E-01
 cg2d: Sum(rhs),rhsMax =  -6.67643749566778E-03  2.14063218811749E-01
 cg2d: Sum(rhs),rhsMax =  -6.67693210148448E-03  2.14067690581445E-01
 cg2d: Sum(rhs),rhsMax =  -6.67742710607433E-03  2.14072160708412E-01
 cg2d: Sum(rhs),rhsMax =  -6.67792250361134E-03  2.14076629196487E-01
 cg2d: Sum(rhs),rhsMax =  -6.67841828982249E-03  2.14081096049520E-01
 cg2d: Sum(rhs),rhsMax =  -6.67891445949492E-03  2.14085561271347E-01
 cg2d: Sum(rhs),rhsMax =  -6.67941100787567E-03  2.14090024865828E-01
 cg2d: Sum(rhs),rhsMax =  -6.67990792995942E-03  2.14094486836814E-01
 cg2d: Sum(rhs),rhsMax =  -6.68040522112177E-03  2.14098947188176E-01
 cg2d: Sum(rhs),rhsMax =  -6.68090287639858E-03  2.14103405923777E-01
 cg2d: Sum(rhs),rhsMax =  -6.68140089127128E-03  2.14107863047489E-01
 cg2d: Sum(rhs),rhsMax =  -6.68189926069132E-03  2.14112318563185E-01
 cg2d: Sum(rhs),rhsMax =  -6.68239797942616E-03  2.14116772474754E-01
 cg2d: Sum(rhs),rhsMax =  -6.68289704330494E-03  2.14121224786081E-01
 cg2d: Sum(rhs),rhsMax =  -6.68339644782142E-03  2.14125675501056E-01
 cg2d: Sum(rhs),rhsMax =  -6.68389618738961E-03  2.14130124623577E-01
 cg2d: Sum(rhs),rhsMax =  -6.68439625724323E-03  2.14134572157546E-01
 cg2d: Sum(rhs),rhsMax =  -6.68489665297750E-03  2.14139018106869E-01
 cg2d: Sum(rhs),rhsMax =  -6.68539737022744E-03  2.14143462475453E-01
 cg2d: Sum(rhs),rhsMax =  -6.68589840315085E-03  2.14147905267219E-01
 cg2d: Sum(rhs),rhsMax =  -6.68639974825569E-03  2.14152346486086E-01
 cg2d: Sum(rhs),rhsMax =  -6.68690140002699E-03  2.14156786135980E-01
 cg2d: Sum(rhs),rhsMax =  -6.68740335398386E-03  2.14161224220830E-01
 cg2d: Sum(rhs),rhsMax =  -6.68790560567562E-03  2.14165660744572E-01
 cg2d: Sum(rhs),rhsMax =  -6.68840814989635E-03  2.14170095711147E-01
 cg2d: Sum(rhs),rhsMax =  -6.68891098205804E-03  2.14174529124495E-01
 cg2d: Sum(rhs),rhsMax =  -6.68941409808474E-03  2.14178960988572E-01
 cg2d: Sum(rhs),rhsMax =  -6.68991749240882E-03  2.14183391307327E-01
 cg2d: Sum(rhs),rhsMax =  -6.69042116093463E-03  2.14187820084721E-01
 cg2d: Sum(rhs),rhsMax =  -6.69092509847339E-03  2.14192247324714E-01
 cg2d: Sum(rhs),rhsMax =  -6.69142930126517E-03  2.14196673031276E-01
 cg2d: Sum(rhs),rhsMax =  -6.69193376382634E-03  2.14201097208384E-01
 cg2d: Sum(rhs),rhsMax =  -6.69243848203270E-03  2.14205519860004E-01
 cg2d: Sum(rhs),rhsMax =  -6.69294345129609E-03  2.14209940990125E-01
 cg2d: Sum(rhs),rhsMax =  -6.69344866671541E-03  2.14214360602735E-01
 cg2d: Sum(rhs),rhsMax =  -6.69395412370107E-03  2.14218778701825E-01
 cg2d: Sum(rhs),rhsMax =  -6.69445981772817E-03  2.14223195291386E-01
 cg2d: Sum(rhs),rhsMax =  -6.69496574440072E-03  2.14227610375419E-01
 cg2d: Sum(rhs),rhsMax =  -6.69547189890643E-03  2.14232023957934E-01
 cg2d: Sum(rhs),rhsMax =  -6.69597827649272E-03  2.14236436042932E-01
 cg2d: Sum(rhs),rhsMax =  -6.69648487335789E-03  2.14240846634434E-01
 cg2d: Sum(rhs),rhsMax =  -6.69699168406376E-03  2.14245255736455E-01
 cg2d: Sum(rhs),rhsMax =  -6.69749870460748E-03  2.14249663353015E-01
 cg2d: Sum(rhs),rhsMax =  -6.69800593074019E-03  2.14254069488147E-01
 cg2d: Sum(rhs),rhsMax =  -6.69851335708099E-03  2.14258474145877E-01
 cg2d: Sum(rhs),rhsMax =  -6.69902097973096E-03  2.14262877330248E-01
(PID.TID 0000.0001)      cg2d_init_res =   4.08099549825699E-04
(PID.TID 0000.0001)      cg2d_iters(min,last) =      -1      71
(PID.TID 0000.0001)      cg2d_last_res =   9.44682816251906E-08
(PID.TID 0000.0001) // =======================================================
(PID.TID 0000.0001) // Begin MONITOR dynamic field statistics
(PID.TID 0000.0001) // =======================================================
(PID.TID 0000.0001) %MON time_tsnumber                =                 15624
(PID.TID 0000.0001) %MON time_secondsf                =   1.8748800000000E+07
(PID.TID 0000.0001) %MON dynstat_eta_max              =   3.3250015575455E-01
(PID.TID 0000.0001) %MON dynstat_eta_min              =  -1.0669823327338E-01
(PID.TID 0000.0001) %MON dynstat_eta_mean             =   7.1737712863600E-06
(PID.TID 0000.0001) %MON dynstat_eta_sd               =   1.2907030366083E-01
(PID.TID 0000.0001) %MON dynstat_eta_del2             =   3.3610559922169E-05
(PID.TID 0000.0001) %MON dynstat_uvel_max             =   1.6335329768993E-01
(PID.TID 0000.0001) %MON dynstat_uvel_min             =  -1.2584758504338E-01
(PID.TID 0000.0001) %MON dynstat_uvel_mean            =   4.2338216648705E-08
(PID.TID 0000.0001) %MON dynstat_uvel_sd              =   5.2878339589429E-02
(PID.TID 0000.0001) %MON dynstat_uvel_del2            =   7.4197307116732E-05
(PID.TID 0000.0001) %MON dynstat_vvel_max             =   1.0772448534080E-01
(PID.TID 0000.0001) %MON dynstat_vvel_min             =  -1.3527396508238E-01
(PID.TID 0000.0001) %MON dynstat_vvel_mean            =   7.4733805783145E-08
(PID.TID 0000.0001) %MON dynstat_vvel_sd              =   4.8180224987497E-02
(PID.TID 0000.0001) %MON dynstat_vvel_del2            =   3.7421987928619E-05
(PID.TID 0000.0001) %MON dynstat_wvel_max             =   1.3667944233748E-08
(PID.TID 0000.0001) %MON dynstat_wvel_min             =  -5.1239648857154E-09
(PID.TID 0000.0001) %MON dynstat_wvel_mean            =  -1.6894237988810E-21
(PID.TID 0000.0001) %MON dynstat_wvel_sd              =   4.8051383295960E-09
(PID.TID 0000.0001) %MON dynstat_wvel_del2            =   1.4544102780517E-12
(PID.TID 0000.0001) %MON dynstat_theta_max            =   2.0000000000000E+01
(PID.TID 0000.0001) %MON dynstat_theta_min            =   2.0000000000000E+01
(PID.TID 0000.0001) %MON dynstat_theta_mean           =   2.0000000000000E+01
(PID.TID 0000.0001) %MON dynstat_theta_sd             =   3.8014036363165E-13
(PID.TID 0000.0001) %MON dynstat_theta_del2           =   0.0000000000000E+00
(PID.TID 0000.0001) %MON dynstat_salt_max             =   3.0000000000000E+01
(PID.TID 0000.0001) %MON dynstat_salt_min             =   3.0000000000000E+01
(PID.TID 0000.0001) %MON dynstat_salt_mean            =   2.9999999999999E+01
(PID.TID 0000.0001) %MON dynstat_salt_sd              =   5.5777604757167E-13
(PID.TID 0000.0001) %MON dynstat_salt_del2            =   0.0000000000000E+00
(PID.TID 0000.0001) %MON trAdv_CFL_u_max              =   9.8001558309702E-03
(PID.TID 0000.0001) %MON trAdv_CFL_v_max              =   8.1054610678879E-03
(PID.TID 0000.0001) %MON trAdv_CFL_w_max              =   3.6257573340011E-09
(PID.TID 0000.0001) %MON advcfl_uvel_max              =   9.8011978613960E-03
(PID.TID 0000.0001) %MON advcfl_vvel_max              =   8.1164379049427E-03
(PID.TID 0000.0001) %MON advcfl_wvel_max              =   6.5606132321991E-09
(PID.TID 0000.0001) %MON advcfl_W_hf_max              =   0.0000000000000E+00
(PID.TID 0000.0001) %MON pe_b_mean                    =   1.7079531690717E-05
(PID.TID 0000.0001) %MON ke_max                       =   1.3356079066976E-02
(PID.TID 0000.0001) %MON ke_mean                      =   2.5116750007264E-03
(PID.TID 0000.0001) %MON ke_vol                       =   6.8893493896486E+15
(PID.TID 0000.0001) %MON vort_r_min                   =  -9.8710332806319E-07
(PID.TID 0000.0001) %MON vort_r_max                   =   3.5137237617940E-06
(PID.TID 0000.0001) %MON vort_a_mean                  =   1.0600000000000E-04
(PID.TID 0000.0001) %MON vort_a_sd                    =   3.5711892459176E-06
(PID.TID 0000.0001) %MON vort_p_mean                  =   1.1652272308690E-04
(PID.TID 0000.0001) %MON vort_p_sd                    =   4.1790737066968E-05
(PID.TID 0000.0001) %MON surfExpan_theta_mean         =  -3.3777632542827E-20
(PID.TID 0000.0001) %MON surfExpan_salt_mean          =  -5.0668975188412E-20
(PID.TID 0000.0001) // =======================================================
(PID.TID 0000.0001) // End MONITOR dynamic field statistics
(PID.TID 0000.0001) // =======================================================
 cg2d: Sum(rhs),rhsMax =  -6.69952879418001E-03  2.14267279045293E-01
 cg2d: Sum(rhs),rhsMax =  -6.70003679553162E-03  2.14271679295060E-01
 cg2d: Sum(rhs),rhsMax =  -6.70054497970946E-03  2.14276078083599E-01
 cg2d: Sum(rhs),rhsMax =  -6.70105334219895E-03  2.14280475414964E-01
 cg2d: Sum(rhs),rhsMax =  -6.70156187838176E-03  2.14284871293212E-01
 cg2d: Sum(rhs),rhsMax =  -6.70207058381809E-03  2.14289265722405E-01
 cg2d: Sum(rhs),rhsMax =  -6.70257945418121E-03  2.14293658706611E-01
 cg2d: Sum(rhs),rhsMax =  -6.70308848504197E-03  2.14298050249901E-01
 cg2d: Sum(rhs),rhsMax =  -6.70359767147154E-03  2.14302440356349E-01
 cg2d: Sum(rhs),rhsMax =  -6.70410700977794E-03  2.14306829030037E-01
 cg2d: Sum(rhs),rhsMax =  -6.70461649498907E-03  2.14311216275045E-01
 cg2d: Sum(rhs),rhsMax =  -6.70512612327685E-03  2.14315602095467E-01
 cg2d: Sum(rhs),rhsMax =  -6.70563589006385E-03  2.14319986495393E-01
 cg2d: Sum(rhs),rhsMax =  -6.70614579106025E-03  2.14324369478919E-01
 cg2d: Sum(rhs),rhsMax =  -6.70665582144952E-03  2.14328751050145E-01
 cg2d: Sum(rhs),rhsMax =  -6.70716597727223E-03  2.14333131213178E-01
 cg2d: Sum(rhs),rhsMax =  -6.70767625374878E-03  2.14337509972127E-01
 cg2d: Sum(rhs),rhsMax =  -6.70818664650083E-03  2.14341887331108E-01
 cg2d: Sum(rhs),rhsMax =  -6.70869715238352E-03  2.14346263294232E-01
 cg2d: Sum(rhs),rhsMax =  -6.70920776548407E-03  2.14350637865627E-01
 cg2d: Sum(rhs),rhsMax =  -6.70971848274431E-03  2.14355011049420E-01
 cg2d: Sum(rhs),rhsMax =  -6.71022929885332E-03  2.14359382849739E-01
 cg2d: Sum(rhs),rhsMax =  -6.71074021056442E-03  2.14363753270718E-01
 cg2d: Sum(rhs),rhsMax =  -6.71125121280443E-03  2.14368122316492E-01
 cg2d: Sum(rhs),rhsMax =  -6.71176230133682E-03  2.14372489991208E-01
 cg2d: Sum(rhs),rhsMax =  -6.71227347229711E-03  2.14376856299011E-01
 cg2d: Sum(rhs),rhsMax =  -6.71278472119869E-03  2.14381221244056E-01
 cg2d: Sum(rhs),rhsMax =  -6.71329604353759E-03  2.14385584830489E-01
 cg2d: Sum(rhs),rhsMax =  -6.71380743551307E-03  2.14389947062476E-01
 cg2d: Sum(rhs),rhsMax =  -6.71431889273845E-03  2.14394307944175E-01
 cg2d: Sum(rhs),rhsMax =  -6.71483041098694E-03  2.14398667479760E-01
 cg2d: Sum(rhs),rhsMax =  -6.71534198622904E-03  2.14403025673389E-01
 cg2d: Sum(rhs),rhsMax =  -6.71585361374157E-03  2.14407382529247E-01
 cg2d: Sum(rhs),rhsMax =  -6.71636528988046E-03  2.14411738051507E-01
 cg2d: Sum(rhs),rhsMax =  -6.71687701026205E-03  2.14416092244359E-01
 cg2d: Sum(rhs),rhsMax =  -6.71738877033620E-03  2.14420445111978E-01
 cg2d: Sum(rhs),rhsMax =  -6.71790056661806E-03  2.14424796658564E-01
 cg2d: Sum(rhs),rhsMax =  -6.71841239458491E-03  2.14429146888310E-01
 cg2d: Sum(rhs),rhsMax =  -6.71892424996703E-03  2.14433495805406E-01
 cg2d: Sum(rhs),rhsMax =  -6.71943612885871E-03  2.14437843414063E-01
 cg2d: Sum(rhs),rhsMax =  -6.71994802728395E-03  2.14442189718482E-01
 cg2d: Sum(rhs),rhsMax =  -6.72045994097542E-03  2.14446534722870E-01
 cg2d: Sum(rhs),rhsMax =  -6.72097186589378E-03  2.14450878431448E-01
 cg2d: Sum(rhs),rhsMax =  -6.72148379772391E-03  2.14455220848425E-01
 cg2d: Sum(rhs),rhsMax =  -6.72199573218678E-03  2.14459561978027E-01
 cg2d: Sum(rhs),rhsMax =  -6.72250766586042E-03  2.14463901824479E-01
 cg2d: Sum(rhs),rhsMax =  -6.72301959444543E-03  2.14468240392009E-01
 cg2d: Sum(rhs),rhsMax =  -6.72353151339537E-03  2.14472577684840E-01
 cg2d: Sum(rhs),rhsMax =  -6.72404341941945E-03  2.14476913707221E-01
 cg2d: Sum(rhs),rhsMax =  -6.72455530772918E-03  2.14481248463388E-01
 cg2d: Sum(rhs),rhsMax =  -6.72506717496340E-03  2.14485581957577E-01
 cg2d: Sum(rhs),rhsMax =  -6.72557901646024E-03  2.14489914194042E-01
 cg2d: Sum(rhs),rhsMax =  -6.72609082879938E-03  2.14494245177030E-01
 cg2d: Sum(rhs),rhsMax =  -6.72660260782486E-03  2.14498574910797E-01
 cg2d: Sum(rhs),rhsMax =  -6.72711434928556E-03  2.14502903399599E-01
 cg2d: Sum(rhs),rhsMax =  -6.72762604946041E-03  2.14507230647701E-01
 cg2d: Sum(rhs),rhsMax =  -6.72813770408750E-03  2.14511556659365E-01
 cg2d: Sum(rhs),rhsMax =  -6.72864930965419E-03  2.14515881438858E-01
 cg2d: Sum(rhs),rhsMax =  -6.72916086124219E-03  2.14520204990448E-01
 cg2d: Sum(rhs),rhsMax =  -6.72967235634083E-03  2.14524527318425E-01
 cg2d: Sum(rhs),rhsMax =  -6.73018378970895E-03  2.14528848427056E-01
 cg2d: Sum(rhs),rhsMax =  -6.73069515811591E-03  2.14533168320627E-01
 cg2d: Sum(rhs),rhsMax =  -6.73120645750125E-03  2.14537487003421E-01
 cg2d: Sum(rhs),rhsMax =  -6.73171768422123E-03  2.14541804479730E-01
 cg2d: Sum(rhs),rhsMax =  -6.73222883389866E-03  2.14546120753847E-01
 cg2d: Sum(rhs),rhsMax =  -6.73273990267667E-03  2.14550435830067E-01
 cg2d: Sum(rhs),rhsMax =  -6.73325088688151E-03  2.14554749712695E-01
 cg2d: Sum(rhs),rhsMax =  -6.73376178230126E-03  2.14559062406029E-01
 cg2d: Sum(rhs),rhsMax =  -6.73427258557916E-03  2.14563373914376E-01
 cg2d: Sum(rhs),rhsMax =  -6.73478329286489E-03  2.14567684242045E-01
 cg2d: Sum(rhs),rhsMax =  -6.73529390000640E-03  2.14571993393355E-01
 cg2d: Sum(rhs),rhsMax =  -6.73580440318927E-03  2.14576301372616E-01
(PID.TID 0000.0001)      cg2d_init_res =   4.05630111733679E-04
(PID.TID 0000.0001)      cg2d_iters(min,last) =      -1      71
(PID.TID 0000.0001)      cg2d_last_res =   9.35864508103309E-08
(PID.TID 0000.0001) // =======================================================
(PID.TID 0000.0001) // Begin MONITOR dynamic field statistics
(PID.TID 0000.0001) // =======================================================
(PID.TID 0000.0001) %MON time_tsnumber                =                 15696
(PID.TID 0000.0001) %MON time_secondsf                =   1.8835200000000E+07
(PID.TID 0000.0001) %MON dynstat_eta_max              =   3.3365733208455E-01
(PID.TID 0000.0001) %MON dynstat_eta_min              =  -1.0701495339417E-01
(PID.TID 0000.0001) %MON dynstat_eta_mean             =   7.2237092888731E-06
(PID.TID 0000.0001) %MON dynstat_eta_sd               =   1.2945848602811E-01
(PID.TID 0000.0001) %MON dynstat_eta_del2             =   3.3686360405632E-05
(PID.TID 0000.0001) %MON dynstat_uvel_max             =   1.6366946183790E-01
(PID.TID 0000.0001) %MON dynstat_uvel_min             =  -1.2622891303818E-01
(PID.TID 0000.0001) %MON dynstat_uvel_mean            =   3.6828379241733E-08
(PID.TID 0000.0001) %MON dynstat_uvel_sd              =   5.3029229758730E-02
(PID.TID 0000.0001) %MON dynstat_uvel_del2            =   7.4271912165653E-05
(PID.TID 0000.0001) %MON dynstat_vvel_max             =   1.0815589572953E-01
(PID.TID 0000.0001) %MON dynstat_vvel_min             =  -1.3576540728965E-01
(PID.TID 0000.0001) %MON dynstat_vvel_mean            =   6.8184110753279E-08
(PID.TID 0000.0001) %MON dynstat_vvel_sd              =   4.8327961649831E-02
(PID.TID 0000.0001) %MON dynstat_vvel_del2            =   3.7342324821104E-05
(PID.TID 0000.0001) %MON dynstat_wvel_max             =   1.3682001413545E-08
(PID.TID 0000.0001) %MON dynstat_wvel_min             =  -5.1112104533240E-09
(PID.TID 0000.0001) %MON dynstat_wvel_mean            =   1.5185883310349E-20
(PID.TID 0000.0001) %MON dynstat_wvel_sd              =   4.7959442615950E-09
(PID.TID 0000.0001) %MON dynstat_wvel_del2            =   1.4496426893071E-12
(PID.TID 0000.0001) %MON dynstat_theta_max            =   2.0000000000000E+01
(PID.TID 0000.0001) %MON dynstat_theta_min            =   2.0000000000000E+01
(PID.TID 0000.0001) %MON dynstat_theta_mean           =   2.0000000000000E+01
(PID.TID 0000.0001) %MON dynstat_theta_sd             =   3.8014036363165E-13
(PID.TID 0000.0001) %MON dynstat_theta_del2           =   0.0000000000000E+00
(PID.TID 0000.0001) %MON dynstat_salt_max             =   3.0000000000000E+01
(PID.TID 0000.0001) %MON dynstat_salt_min             =   3.0000000000000E+01
(PID.TID 0000.0001) %MON dynstat_salt_mean            =   2.9999999999999E+01
(PID.TID 0000.0001) %MON dynstat_salt_sd              =   5.5777604757167E-13
(PID.TID 0000.0001) %MON dynstat_salt_del2            =   0.0000000000000E+00
(PID.TID 0000.0001) %MON trAdv_CFL_u_max              =   9.8191320967307E-03
(PID.TID 0000.0001) %MON trAdv_CFL_v_max              =   8.1349073565559E-03
(PID.TID 0000.0001) %MON trAdv_CFL_w_max              =   3.6295011282717E-09
(PID.TID 0000.0001) %MON advcfl_uvel_max              =   9.8201677102738E-03
(PID.TID 0000.0001) %MON advcfl_vvel_max              =   8.1459244373788E-03
(PID.TID 0000.0001) %MON advcfl_wvel_max              =   6.5673606785014E-09
(PID.TID 0000.0001) %MON advcfl_W_hf_max              =   0.0000000000000E+00
(PID.TID 0000.0001) %MON pe_b_mean                    =   1.7182420469818E-05
(PID.TID 0000.0001) %MON ke_max                       =   1.3408798182923E-02
(PID.TID 0000.0001) %MON ke_mean                      =   2.5265160855486E-03
(PID.TID 0000.0001) %MON ke_vol                       =   6.8893493896486E+15
(PID.TID 0000.0001) %MON vort_r_min                   =  -9.8808270043469E-07
(PID.TID 0000.0001) %MON vort_r_max                   =   3.5199462661736E-06
(PID.TID 0000.0001) %MON vort_a_mean                  =   1.0600000000000E-04
(PID.TID 0000.0001) %MON vort_a_sd                    =   3.5713804465764E-06
(PID.TID 0000.0001) %MON vort_p_mean                  =   1.1652272308690E-04
(PID.TID 0000.0001) %MON vort_p_sd                    =   4.1790811776478E-05
(PID.TID 0000.0001) %MON surfExpan_theta_mean         =   3.0374233498757E-19
(PID.TID 0000.0001) %MON surfExpan_salt_mean          =   4.5561666044907E-19
(PID.TID 0000.0001) // =======================================================
(PID.TID 0000.0001) // End MONITOR dynamic field statistics
(PID.TID 0000.0001) // =======================================================
 cg2d: Sum(rhs),rhsMax =  -6.73631479849528E-03  2.14580608184149E-01
 cg2d: Sum(rhs),rhsMax =  -6.73682508224544E-03  2.14584913832282E-01
 cg2d: Sum(rhs),rhsMax =  -6.73733525044305E-03  2.14589218321338E-01
 cg2d: Sum(rhs),rhsMax =  -6.73784530006573E-03  2.14593521655641E-01
 cg2d: Sum(rhs),rhsMax =  -6.73835522603098E-03  2.14597823839536E-01
 cg2d: Sum(rhs),rhsMax =  -6.73886502583472E-03  2.14602124877356E-01
 cg2d: Sum(rhs),rhsMax =  -6.73937469495345E-03  2.14606424773432E-01
 cg2d: Sum(rhs),rhsMax =  -6.73988422973532E-03  2.14610723532116E-01
 cg2d: Sum(rhs),rhsMax =  -6.74039362624919E-03  2.14615021157747E-01
 cg2d: Sum(rhs),rhsMax =  -6.74090288105267E-03  2.14619317654682E-01
 cg2d: Sum(rhs),rhsMax =  -6.74141199061551E-03  2.14623613027264E-01
 cg2d: Sum(rhs),rhsMax =  -6.74192095037837E-03  2.14627907279855E-01
 cg2d: Sum(rhs),rhsMax =  -6.74242975742082E-03  2.14632200416810E-01
 cg2d: Sum(rhs),rhsMax =  -6.74293840745791E-03  2.14636492442492E-01
 cg2d: Sum(rhs),rhsMax =  -6.74344689744804E-03  2.14640783361273E-01
 cg2d: Sum(rhs),rhsMax =  -6.74395522306946E-03  2.14645073177505E-01
 cg2d: Sum(rhs),rhsMax =  -6.74446338100689E-03  2.14649361895570E-01
 cg2d: Sum(rhs),rhsMax =  -6.74497136721764E-03  2.14653649519843E-01
 cg2d: Sum(rhs),rhsMax =  -6.74547917845641E-03  2.14657936054688E-01
 cg2d: Sum(rhs),rhsMax =  -6.74598681080781E-03  2.14662221504499E-01
 cg2d: Sum(rhs),rhsMax =  -6.74649426072280E-03  2.14666505873662E-01
 cg2d: Sum(rhs),rhsMax =  -6.74700152466200E-03  2.14670789166539E-01
 cg2d: Sum(rhs),rhsMax =  -6.74750859892663E-03  2.14675071387546E-01
 cg2d: Sum(rhs),rhsMax =  -6.74801547968286E-03  2.14679352541056E-01
 cg2d: Sum(rhs),rhsMax =  -6.74852216315005E-03  2.14683632631475E-01
 cg2d: Sum(rhs),rhsMax =  -6.74902864606772E-03  2.14687911663192E-01
 cg2d: Sum(rhs),rhsMax =  -6.74953492474454E-03  2.14692189640611E-01
 cg2d: Sum(rhs),rhsMax =  -6.75004099567238E-03  2.14696466568137E-01
 cg2d: Sum(rhs),rhsMax =  -6.75054685552269E-03  2.14700742450177E-01
 cg2d: Sum(rhs),rhsMax =  -6.75105249957023E-03  2.14705017291135E-01
 cg2d: Sum(rhs),rhsMax =  -6.75155792524357E-03  2.14709291095425E-01
 cg2d: Sum(rhs),rhsMax =  -6.75206312878140E-03  2.14713563867462E-01
 cg2d: Sum(rhs),rhsMax =  -6.75256810653527E-03  2.14717835611661E-01
 cg2d: Sum(rhs),rhsMax =  -6.75307285519523E-03  2.14722106332445E-01
 cg2d: Sum(rhs),rhsMax =  -6.75357737083229E-03  2.14726376034233E-01
 cg2d: Sum(rhs),rhsMax =  -6.75408165027905E-03  2.14730644721461E-01
 cg2d: Sum(rhs),rhsMax =  -6.75458568960264E-03  2.14734912398548E-01
 cg2d: Sum(rhs),rhsMax =  -6.75508948595342E-03  2.14739179069921E-01
 cg2d: Sum(rhs),rhsMax =  -6.75559303541007E-03  2.14743444740022E-01
 cg2d: Sum(rhs),rhsMax =  -6.75609633442795E-03  2.14747709413281E-01
 cg2d: Sum(rhs),rhsMax =  -6.75659937919839E-03  2.14751973094143E-01
 cg2d: Sum(rhs),rhsMax =  -6.75710216689172E-03  2.14756235787049E-01
 cg2d: Sum(rhs),rhsMax =  -6.75760469353694E-03  2.14760497496435E-01
 cg2d: Sum(rhs),rhsMax =  -6.75810695587525E-03  2.14764758226756E-01
 cg2d: Sum(rhs),rhsMax =  -6.75860895062860E-03  2.14769017982461E-01
 cg2d: Sum(rhs),rhsMax =  -6.75911067405294E-03  2.14773276767997E-01
 cg2d: Sum(rhs),rhsMax =  -6.75961212238700E-03  2.14777534587820E-01
 cg2d: Sum(rhs),rhsMax =  -6.76011329264002E-03  2.14781791446389E-01
 cg2d: Sum(rhs),rhsMax =  -6.76061418121639E-03  2.14786047348160E-01
 cg2d: Sum(rhs),rhsMax =  -6.76111478468171E-03  2.14790302297599E-01
 cg2d: Sum(rhs),rhsMax =  -6.76161509951757E-03  2.14794556299164E-01
 cg2d: Sum(rhs),rhsMax =  -6.76211512265391E-03  2.14798809357334E-01
 cg2d: Sum(rhs),rhsMax =  -6.76261485056281E-03  2.14803061476562E-01
 cg2d: Sum(rhs),rhsMax =  -6.76311427952492E-03  2.14807312661330E-01
 cg2d: Sum(rhs),rhsMax =  -6.76361340636265E-03  2.14811562916111E-01
 cg2d: Sum(rhs),rhsMax =  -6.76411222744358E-03  2.14815812245377E-01
 cg2d: Sum(rhs),rhsMax =  -6.76461074001307E-03  2.14820060653608E-01
 cg2d: Sum(rhs),rhsMax =  -6.76510894013478E-03  2.14824308145293E-01
 cg2d: Sum(rhs),rhsMax =  -6.76560682457545E-03  2.14828554724903E-01
 cg2d: Sum(rhs),rhsMax =  -6.76610438983238E-03  2.14832800396928E-01
 cg2d: Sum(rhs),rhsMax =  -6.76660163271195E-03  2.14837045165858E-01
 cg2d: Sum(rhs),rhsMax =  -6.76709854988690E-03  2.14841289036185E-01
 cg2d: Sum(rhs),rhsMax =  -6.76759513773969E-03  2.14845532012399E-01
 cg2d: Sum(rhs),rhsMax =  -6.76809139320529E-03  2.14849774098991E-01
 cg2d: Sum(rhs),rhsMax =  -6.76858731222872E-03  2.14854015300463E-01
 cg2d: Sum(rhs),rhsMax =  -6.76908289297275E-03  2.14858255621313E-01
 cg2d: Sum(rhs),rhsMax =  -6.76957813092165E-03  2.14862495066040E-01
 cg2d: Sum(rhs),rhsMax =  -6.77007302318472E-03  2.14866733639148E-01
 cg2d: Sum(rhs),rhsMax =  -6.77056756631223E-03  2.14870971345145E-01
 cg2d: Sum(rhs),rhsMax =  -6.77106175653124E-03  2.14875208188537E-01
 cg2d: Sum(rhs),rhsMax =  -6.77155559120588E-03  2.14879444173831E-01
 cg2d: Sum(rhs),rhsMax =  -6.77204906660991E-03  2.14883679305544E-01
(PID.TID 0000.0001)      cg2d_init_res =   4.03601105971778E-04
(PID.TID 0000.0001)      cg2d_iters(min,last) =      -1      71
(PID.TID 0000.0001)      cg2d_last_res =   9.19493705880830E-08
(PID.TID 0000.0001) // =======================================================
(PID.TID 0000.0001) // Begin MONITOR dynamic field statistics
(PID.TID 0000.0001) // =======================================================
(PID.TID 0000.0001) %MON time_tsnumber                =                 15768
(PID.TID 0000.0001) %MON time_secondsf                =   1.8921600000000E+07
(PID.TID 0000.0001) %MON dynstat_eta_max              =   3.3481227737445E-01
(PID.TID 0000.0001) %MON dynstat_eta_min              =  -1.0734156412485E-01
(PID.TID 0000.0001) %MON dynstat_eta_mean             =   7.2729587016143E-06
(PID.TID 0000.0001) %MON dynstat_eta_sd               =   1.2984651102006E-01
(PID.TID 0000.0001) %MON dynstat_eta_del2             =   3.3761731931397E-05
(PID.TID 0000.0001) %MON dynstat_uvel_max             =   1.6397643228917E-01
(PID.TID 0000.0001) %MON dynstat_uvel_min             =  -1.2659592676228E-01
(PID.TID 0000.0001) %MON dynstat_uvel_mean            =   2.9741616510856E-08
(PID.TID 0000.0001) %MON dynstat_uvel_sd              =   5.3177436199953E-02
(PID.TID 0000.0001) %MON dynstat_uvel_del2            =   7.4341968820866E-05
(PID.TID 0000.0001) %MON dynstat_vvel_max             =   1.0858752639957E-01
(PID.TID 0000.0001) %MON dynstat_vvel_min             =  -1.3625787966864E-01
(PID.TID 0000.0001) %MON dynstat_vvel_mean            =   6.2330871082770E-08
(PID.TID 0000.0001) %MON dynstat_vvel_sd              =   4.8478622645260E-02
(PID.TID 0000.0001) %MON dynstat_vvel_del2            =   3.7269058321266E-05
(PID.TID 0000.0001) %MON dynstat_wvel_max             =   1.3691218730528E-08
(PID.TID 0000.0001) %MON dynstat_wvel_min             =  -5.0791270937771E-09
(PID.TID 0000.0001) %MON dynstat_wvel_mean            =  -1.2852286898932E-21
(PID.TID 0000.0001) %MON dynstat_wvel_sd              =   4.7851621725383E-09
(PID.TID 0000.0001) %MON dynstat_wvel_del2            =   1.4449153985087E-12
(PID.TID 0000.0001) %MON dynstat_theta_max            =   2.0000000000000E+01
(PID.TID 0000.0001) %MON dynstat_theta_min            =   2.0000000000000E+01
(PID.TID 0000.0001) %MON dynstat_theta_mean           =   2.0000000000000E+01
(PID.TID 0000.0001) %MON dynstat_theta_sd             =   3.8014036363165E-13
(PID.TID 0000.0001) %MON dynstat_theta_del2           =   0.0000000000000E+00
(PID.TID 0000.0001) %MON dynstat_salt_max             =   3.0000000000000E+01
(PID.TID 0000.0001) %MON dynstat_salt_min             =   3.0000000000000E+01
(PID.TID 0000.0001) %MON dynstat_salt_mean            =   2.9999999999999E+01
(PID.TID 0000.0001) %MON dynstat_salt_sd              =   5.5777604757167E-13
(PID.TID 0000.0001) %MON dynstat_salt_del2            =   0.0000000000000E+00
(PID.TID 0000.0001) %MON trAdv_CFL_u_max              =   9.8375562607730E-03
(PID.TID 0000.0001) %MON trAdv_CFL_v_max              =   8.1644173231608E-03
(PID.TID 0000.0001) %MON trAdv_CFL_w_max              =   3.6319671275943E-09
(PID.TID 0000.0001) %MON advcfl_uvel_max              =   9.8385859373502E-03
(PID.TID 0000.0001) %MON advcfl_vvel_max              =   8.1754727801181E-03
(PID.TID 0000.0001) %MON advcfl_wvel_max              =   6.5717849906534E-09
(PID.TID 0000.0001) %MON advcfl_W_hf_max              =   0.0000000000000E+00
(PID.TID 0000.0001) %MON pe_b_mean                    =   1.7285576324395E-05
(PID.TID 0000.0001) %MON ke_max                       =   1.3460110821571E-02
(PID.TID 0000.0001) %MON ke_mean                      =   2.5414000078419E-03
(PID.TID 0000.0001) %MON ke_vol                       =   6.8893493896486E+15
(PID.TID 0000.0001) %MON vort_r_min                   =  -9.9158526898882E-07
(PID.TID 0000.0001) %MON vort_r_max                   =   3.5259633610450E-06
(PID.TID 0000.0001) %MON vort_a_mean                  =   1.0600000000000E-04
(PID.TID 0000.0001) %MON vort_a_sd                    =   3.5715715857468E-06
(PID.TID 0000.0001) %MON vort_p_mean                  =   1.1652272308690E-04
(PID.TID 0000.0001) %MON vort_p_sd                    =   4.1790884151331E-05
(PID.TID 0000.0001) %MON surfExpan_theta_mean         =  -2.5689119967056E-20
(PID.TID 0000.0001) %MON surfExpan_salt_mean          =  -3.8531785169956E-20
(PID.TID 0000.0001) // =======================================================
(PID.TID 0000.0001) // End MONITOR dynamic field statistics
(PID.TID 0000.0001) // =======================================================
 cg2d: Sum(rhs),rhsMax =  -6.77254217947833E-03  2.14887913588186E-01
 cg2d: Sum(rhs),rhsMax =  -6.77303492725151E-03  2.14892147026275E-01
 cg2d: Sum(rhs),rhsMax =  -6.77352730538111E-03  2.14896379624327E-01
 cg2d: Sum(rhs),rhsMax =  -6.77401931158217E-03  2.14900611386864E-01
 cg2d: Sum(rhs),rhsMax =  -6.77451094227722E-03  2.14904842318411E-01
 cg2d: Sum(rhs),rhsMax =  -6.77500219399135E-03  2.14909072423480E-01
 cg2d: Sum(rhs),rhsMax =  -6.77549306360298E-03  2.14913301706610E-01
 cg2d: Sum(rhs),rhsMax =  -6.77598354784667E-03  2.14917530172322E-01
 cg2d: Sum(rhs),rhsMax =  -6.77647364333334E-03  2.14921757825145E-01
 cg2d: Sum(rhs),rhsMax =  -6.77696334722091E-03  2.14925984669611E-01
 cg2d: Sum(rhs),rhsMax =  -6.77745265591117E-03  2.14930210710263E-01
 cg2d: Sum(rhs),rhsMax =  -6.77794156591284E-03  2.14934435951622E-01
 cg2d: Sum(rhs),rhsMax =  -6.77843007416236E-03  2.14938660398238E-01
 cg2d: Sum(rhs),rhsMax =  -6.77891817775382E-03  2.14942884054638E-01
 cg2d: Sum(rhs),rhsMax =  -6.77940587326795E-03  2.14947106925370E-01
 cg2d: Sum(rhs),rhsMax =  -6.77989315716835E-03  2.14951329014975E-01
 cg2d: Sum(rhs),rhsMax =  -6.78038002594395E-03  2.14955550328002E-01
 cg2d: Sum(rhs),rhsMax =  -6.78086647738512E-03  2.14959770868987E-01
 cg2d: Sum(rhs),rhsMax =  -6.78135250769299E-03  2.14963990642485E-01
 cg2d: Sum(rhs),rhsMax =  -6.78183811364174E-03  2.14968209653046E-01
 cg2d: Sum(rhs),rhsMax =  -6.78232329182653E-03  2.14972427905219E-01
 cg2d: Sum(rhs),rhsMax =  -6.78280803924689E-03  2.14976645403556E-01
 cg2d: Sum(rhs),rhsMax =  -6.78329235249014E-03  2.14980862152613E-01
 cg2d: Sum(rhs),rhsMax =  -6.78377622885857E-03  2.14985078156945E-01
 cg2d: Sum(rhs),rhsMax =  -6.78425966456947E-03  2.14989293421112E-01
 cg2d: Sum(rhs),rhsMax =  -6.78474265655807E-03  2.14993507949670E-01
 cg2d: Sum(rhs),rhsMax =  -6.78522520176690E-03  2.14997721747186E-01
 cg2d: Sum(rhs),rhsMax =  -6.78570729673744E-03  2.15001934818213E-01
 cg2d: Sum(rhs),rhsMax =  -6.78618893867028E-03  2.15006147167326E-01
 cg2d: Sum(rhs),rhsMax =  -6.78667012405515E-03  2.15010358799085E-01
 cg2d: Sum(rhs),rhsMax =  -6.78715084967569E-03  2.15014569718057E-01
 cg2d: Sum(rhs),rhsMax =  -6.78763111253561E-03  2.15018779928817E-01
 cg2d: Sum(rhs),rhsMax =  -6.78811090906628E-03  2.15022989435923E-01
 cg2d: Sum(rhs),rhsMax =  -6.78859023619971E-03  2.15027198243949E-01
 cg2d: Sum(rhs),rhsMax =  -6.78906909115402E-03  2.15031406357481E-01
 cg2d: Sum(rhs),rhsMax =  -6.78954747018079E-03  2.15035613781079E-01
 cg2d: Sum(rhs),rhsMax =  -6.79002537053139E-03  2.15039820519324E-01
 cg2d: Sum(rhs),rhsMax =  -6.79050278869980E-03  2.15044026576794E-01
 cg2d: Sum(rhs),rhsMax =  -6.79097972093255E-03  2.15048231958069E-01
 cg2d: Sum(rhs),rhsMax =  -6.79145616506801E-03  2.15052436667724E-01
 cg2d: Sum(rhs),rhsMax =  -6.79193211731576E-03  2.15056640710345E-01
 cg2d: Sum(rhs),rhsMax =  -6.79240757494823E-03  2.15060844090511E-01
 cg2d: Sum(rhs),rhsMax =  -6.79288253407781E-03  2.15065046812806E-01
 cg2d: Sum(rhs),rhsMax =  -6.79335699241027E-03  2.15069248881819E-01
 cg2d: Sum(rhs),rhsMax =  -6.79383094578802E-03  2.15073450302130E-01
 cg2d: Sum(rhs),rhsMax =  -6.79430439199422E-03  2.15077651078330E-01
 cg2d: Sum(rhs),rhsMax =  -6.79477732689483E-03  2.15081851215007E-01
 cg2d: Sum(rhs),rhsMax =  -6.79524974756906E-03  2.15086050716753E-01
 cg2d: Sum(rhs),rhsMax =  -6.79572165129778E-03  2.15090249588155E-01
 cg2d: Sum(rhs),rhsMax =  -6.79619303456401E-03  2.15094447833802E-01
 cg2d: Sum(rhs),rhsMax =  -6.79666389421789E-03  2.15098645458300E-01
 cg2d: Sum(rhs),rhsMax =  -6.79713422640868E-03  2.15102842466234E-01
 cg2d: Sum(rhs),rhsMax =  -6.79760402879765E-03  2.15107038862200E-01
 cg2d: Sum(rhs),rhsMax =  -6.79807329808223E-03  2.15111234650797E-01
 cg2d: Sum(rhs),rhsMax =  -6.79854203059739E-03  2.15115429836615E-01
 cg2d: Sum(rhs),rhsMax =  -6.79901022354936E-03  2.15119624424264E-01
 cg2d: Sum(rhs),rhsMax =  -6.79947787391842E-03  2.15123818418338E-01
 cg2d: Sum(rhs),rhsMax =  -6.79994497775480E-03  2.15128011823438E-01
 cg2d: Sum(rhs),rhsMax =  -6.80041153243481E-03  2.15132204644161E-01
 cg2d: Sum(rhs),rhsMax =  -6.80087753486051E-03  2.15136396885122E-01
 cg2d: Sum(rhs),rhsMax =  -6.80134298102835E-03  2.15140588550909E-01
 cg2d: Sum(rhs),rhsMax =  -6.80180786844768E-03  2.15144779646135E-01
 cg2d: Sum(rhs),rhsMax =  -6.80227219330285E-03  2.15148970175404E-01
 cg2d: Sum(rhs),rhsMax =  -6.80273595310249E-03  2.15153160143325E-01
 cg2d: Sum(rhs),rhsMax =  -6.80319914431811E-03  2.15157349554497E-01
 cg2d: Sum(rhs),rhsMax =  -6.80366176365306E-03  2.15161538413532E-01
 cg2d: Sum(rhs),rhsMax =  -6.80412380751508E-03  2.15165726725045E-01
 cg2d: Sum(rhs),rhsMax =  -6.80458527334878E-03  2.15169914493631E-01
 cg2d: Sum(rhs),rhsMax =  -6.80504615755237E-03  2.15174101723915E-01
 cg2d: Sum(rhs),rhsMax =  -6.80550645721074E-03  2.15178288420499E-01
 cg2d: Sum(rhs),rhsMax =  -6.80596616886021E-03  2.15182474587992E-01
 cg2d: Sum(rhs),rhsMax =  -6.80642528920575E-03  2.15186660231023E-01
(PID.TID 0000.0001)      cg2d_init_res =   4.01885647833847E-04
(PID.TID 0000.0001)      cg2d_iters(min,last) =      -1      71
(PID.TID 0000.0001)      cg2d_last_res =   8.96740618016651E-08
(PID.TID 0000.0001) // =======================================================
(PID.TID 0000.0001) // Begin MONITOR dynamic field statistics
(PID.TID 0000.0001) // =======================================================
(PID.TID 0000.0001) %MON time_tsnumber                =                 15840
(PID.TID 0000.0001) %MON time_secondsf                =   1.9008000000000E+07
(PID.TID 0000.0001) %MON dynstat_eta_max              =   3.3596475449350E-01
(PID.TID 0000.0001) %MON dynstat_eta_min              =  -1.0767666782441E-01
(PID.TID 0000.0001) %MON dynstat_eta_mean             =   7.3201426304751E-06
(PID.TID 0000.0001) %MON dynstat_eta_sd               =   1.3023443380803E-01
(PID.TID 0000.0001) %MON dynstat_eta_del2             =   3.3836733562259E-05
(PID.TID 0000.0001) %MON dynstat_uvel_max             =   1.6427491056727E-01
(PID.TID 0000.0001) %MON dynstat_uvel_min             =  -1.2694950888854E-01
(PID.TID 0000.0001) %MON dynstat_uvel_mean            =   2.1262723793942E-08
(PID.TID 0000.0001) %MON dynstat_uvel_sd              =   5.3323105968951E-02
(PID.TID 0000.0001) %MON dynstat_uvel_del2            =   7.4407887655912E-05
(PID.TID 0000.0001) %MON dynstat_vvel_max             =   1.0902049052500E-01
(PID.TID 0000.0001) %MON dynstat_vvel_min             =  -1.3674907087780E-01
(PID.TID 0000.0001) %MON dynstat_vvel_mean            =   5.7393220830528E-08
(PID.TID 0000.0001) %MON dynstat_vvel_sd              =   4.8632060674256E-02
(PID.TID 0000.0001) %MON dynstat_vvel_del2            =   3.7202317221675E-05
(PID.TID 0000.0001) %MON dynstat_wvel_max             =   1.3706472647609E-08
(PID.TID 0000.0001) %MON dynstat_wvel_min             =  -5.0426543038338E-09
(PID.TID 0000.0001) %MON dynstat_wvel_mean            =   1.9343769963598E-20
(PID.TID 0000.0001) %MON dynstat_wvel_sd              =   4.7732010262405E-09
(PID.TID 0000.0001) %MON dynstat_wvel_del2            =   1.4399815398250E-12
(PID.TID 0000.0001) %MON dynstat_theta_max            =   2.0000000000000E+01
(PID.TID 0000.0001) %MON dynstat_theta_min            =   2.0000000000000E+01
(PID.TID 0000.0001) %MON dynstat_theta_mean           =   2.0000000000000E+01
(PID.TID 0000.0001) %MON dynstat_theta_sd             =   3.8014036363165E-13
(PID.TID 0000.0001) %MON dynstat_theta_del2           =   0.0000000000000E+00
(PID.TID 0000.0001) %MON dynstat_salt_max             =   3.0000000000000E+01
(PID.TID 0000.0001) %MON dynstat_salt_min             =   3.0000000000000E+01
(PID.TID 0000.0001) %MON dynstat_salt_mean            =   2.9999999999999E+01
(PID.TID 0000.0001) %MON dynstat_salt_sd              =   5.5777604757167E-13
(PID.TID 0000.0001) %MON dynstat_salt_del2            =   0.0000000000000E+00
(PID.TID 0000.0001) %MON trAdv_CFL_u_max              =   9.8554702920923E-03
(PID.TID 0000.0001) %MON trAdv_CFL_v_max              =   8.1938524106262E-03
(PID.TID 0000.0001) %MON trAdv_CFL_w_max              =   3.6344732805587E-09
(PID.TID 0000.0001) %MON advcfl_uvel_max              =   9.8564946340361E-03
(PID.TID 0000.0001) %MON advcfl_vvel_max              =   8.2049442526677E-03
(PID.TID 0000.0001) %MON advcfl_wvel_max              =   6.5791068708524E-09
(PID.TID 0000.0001) %MON advcfl_W_hf_max              =   0.0000000000000E+00
(PID.TID 0000.0001) %MON pe_b_mean                    =   1.7389013611839E-05
(PID.TID 0000.0001) %MON ke_max                       =   1.3510113946977E-02
(PID.TID 0000.0001) %MON ke_mean                      =   2.5563275592615E-03
(PID.TID 0000.0001) %MON ke_vol                       =   6.8893493896486E+15
(PID.TID 0000.0001) %MON vort_r_min                   =  -9.9502367010502E-07
(PID.TID 0000.0001) %MON vort_r_max                   =   3.5317892159815E-06
(PID.TID 0000.0001) %MON vort_a_mean                  =   1.0600000000000E-04
(PID.TID 0000.0001) %MON vort_a_sd                    =   3.5717630430553E-06
(PID.TID 0000.0001) %MON vort_p_mean                  =   1.1652272308690E-04
(PID.TID 0000.0001) %MON vort_p_sd                    =   4.1790954562914E-05
(PID.TID 0000.0001) %MON surfExpan_theta_mean         =   3.8689525657295E-19
(PID.TID 0000.0001) %MON surfExpan_salt_mean          =   5.8032614763053E-19
(PID.TID 0000.0001) // =======================================================
(PID.TID 0000.0001) // End MONITOR dynamic field statistics
(PID.TID 0000.0001) // =======================================================
 cg2d: Sum(rhs),rhsMax =  -6.80688381483609E-03  2.15190845354183E-01
 cg2d: Sum(rhs),rhsMax =  -6.80734174318246E-03  2.15195029962103E-01
 cg2d: Sum(rhs),rhsMax =  -6.80779906978478E-03  2.15199214059388E-01
 cg2d: Sum(rhs),rhsMax =  -6.80825579234873E-03  2.15203397650655E-01
 cg2d: Sum(rhs),rhsMax =  -6.80871190748591E-03  2.15207580740520E-01
 cg2d: Sum(rhs),rhsMax =  -6.80916741175981E-03  2.15211763333597E-01
 cg2d: Sum(rhs),rhsMax =  -6.80962230195892E-03  2.15215945434509E-01
 cg2d: Sum(rhs),rhsMax =  -6.81007657445557E-03  2.15220127047868E-01
 cg2d: Sum(rhs),rhsMax =  -6.81053022690464E-03  2.15224308178294E-01
 cg2d: Sum(rhs),rhsMax =  -6.81098325526843E-03  2.15228488830403E-01
 cg2d: Sum(rhs),rhsMax =  -6.81143565629837E-03  2.15232669008812E-01
 cg2d: Sum(rhs),rhsMax =  -6.81188742651135E-03  2.15236848718153E-01
 cg2d: Sum(rhs),rhsMax =  -6.81233856328736E-03  2.15241027963029E-01
 cg2d: Sum(rhs),rhsMax =  -6.81278906303998E-03  2.15245206748075E-01
 cg2d: Sum(rhs),rhsMax =  -6.81323892223627E-03  2.15249385077901E-01
 cg2d: Sum(rhs),rhsMax =  -6.81368813782090E-03  2.15253562957136E-01
 cg2d: Sum(rhs),rhsMax =  -6.81413670644277E-03  2.15257740390395E-01
 cg2d: Sum(rhs),rhsMax =  -6.81458462466153E-03  2.15261917382301E-01
 cg2d: Sum(rhs),rhsMax =  -6.81503188897939E-03  2.15266093937478E-01
 cg2d: Sum(rhs),rhsMax =  -6.81547849697143E-03  2.15270270060547E-01
 cg2d: Sum(rhs),rhsMax =  -6.81592444395557E-03  2.15274445756134E-01
 cg2d: Sum(rhs),rhsMax =  -6.81636972739676E-03  2.15278621028858E-01
 cg2d: Sum(rhs),rhsMax =  -6.81681434413802E-03  2.15282795883344E-01
 cg2d: Sum(rhs),rhsMax =  -6.81725829042721E-03  2.15286970324217E-01
 cg2d: Sum(rhs),rhsMax =  -6.81770156255409E-03  2.15291144356101E-01
 cg2d: Sum(rhs),rhsMax =  -6.81814415776092E-03  2.15295317983620E-01
 cg2d: Sum(rhs),rhsMax =  -6.81858607233173E-03  2.15299491211392E-01
 cg2d: Sum(rhs),rhsMax =  -6.81902730313988E-03  2.15303664044053E-01
 cg2d: Sum(rhs),rhsMax =  -6.81946784667339E-03  2.15307836486214E-01
 cg2d: Sum(rhs),rhsMax =  -6.81990769997959E-03  2.15312008542508E-01
 cg2d: Sum(rhs),rhsMax =  -6.82034685916087E-03  2.15316180217558E-01
 cg2d: Sum(rhs),rhsMax =  -6.82078532067849E-03  2.15320351515990E-01
 cg2d: Sum(rhs),rhsMax =  -6.82122308140348E-03  2.15324522442428E-01
 cg2d: Sum(rhs),rhsMax =  -6.82166013787857E-03  2.15328693001496E-01
 cg2d: Sum(rhs),rhsMax =  -6.82209648731586E-03  2.15332863197824E-01
 cg2d: Sum(rhs),rhsMax =  -6.82253212546998E-03  2.15337033036025E-01
 cg2d: Sum(rhs),rhsMax =  -6.82296704882367E-03  2.15341202520739E-01
 cg2d: Sum(rhs),rhsMax =  -6.82340125393360E-03  2.15345371656579E-01
 cg2d: Sum(rhs),rhsMax =  -6.82383473824728E-03  2.15349540448179E-01
 cg2d: Sum(rhs),rhsMax =  -6.82426749746140E-03  2.15353708900149E-01
 cg2d: Sum(rhs),rhsMax =  -6.82469952839961E-03  2.15357877017131E-01
 cg2d: Sum(rhs),rhsMax =  -6.82513082757692E-03  2.15362044803741E-01
 cg2d: Sum(rhs),rhsMax =  -6.82556139177534E-03  2.15366212264601E-01
 cg2d: Sum(rhs),rhsMax =  -6.82599121677092E-03  2.15370379404342E-01
 cg2d: Sum(rhs),rhsMax =  -6.82642029997282E-03  2.15374546227583E-01
 cg2d: Sum(rhs),rhsMax =  -6.82684863714668E-03  2.15378712738949E-01
 cg2d: Sum(rhs),rhsMax =  -6.82727622530895E-03  2.15382878943067E-01
 cg2d: Sum(rhs),rhsMax =  -6.82770306085717E-03  2.15387044844555E-01
 cg2d: Sum(rhs),rhsMax =  -6.82812914026347E-03  2.15391210448038E-01
 cg2d: Sum(rhs),rhsMax =  -6.82855445976220E-03  2.15395375758144E-01
 cg2d: Sum(rhs),rhsMax =  -6.82897901594076E-03  2.15399540779488E-01
 cg2d: Sum(rhs),rhsMax =  -6.82940280547943E-03  2.15403705516695E-01
 cg2d: Sum(rhs),rhsMax =  -6.82982582461233E-03  2.15407869974389E-01
 cg2d: Sum(rhs),rhsMax =  -6.83024807020131E-03  2.15412034157187E-01
 cg2d: Sum(rhs),rhsMax =  -6.83066953781684E-03  2.15416198069714E-01
 cg2d: Sum(rhs),rhsMax =  -6.83109022489938E-03  2.15420361716589E-01
 cg2d: Sum(rhs),rhsMax =  -6.83151012712172E-03  2.15424525102434E-01
 cg2d: Sum(rhs),rhsMax =  -6.83192924142553E-03  2.15428688231868E-01
 cg2d: Sum(rhs),rhsMax =  -6.83234756319900E-03  2.15432851109509E-01
 cg2d: Sum(rhs),rhsMax =  -6.83276509038444E-03  2.15437013739980E-01
 cg2d: Sum(rhs),rhsMax =  -6.83318181857623E-03  2.15441176127894E-01
 cg2d: Sum(rhs),rhsMax =  -6.83359774397909E-03  2.15445338277872E-01
 cg2d: Sum(rhs),rhsMax =  -6.83401286368720E-03  2.15449500194531E-01
 cg2d: Sum(rhs),rhsMax =  -6.83442717331380E-03  2.15453661882486E-01
 cg2d: Sum(rhs),rhsMax =  -6.83484067003724E-03  2.15457823346358E-01
 cg2d: Sum(rhs),rhsMax =  -6.83525334913457E-03  2.15461984590757E-01
 cg2d: Sum(rhs),rhsMax =  -6.83566520808929E-03  2.15466145620301E-01
 cg2d: Sum(rhs),rhsMax =  -6.83607624261381E-03  2.15470306439601E-01
 cg2d: Sum(rhs),rhsMax =  -6.83648644916430E-03  2.15474467053282E-01
 cg2d: Sum(rhs),rhsMax =  -6.83689582363185E-03  2.15478627465941E-01
 cg2d: Sum(rhs),rhsMax =  -6.83730436312495E-03  2.15482787682202E-01
 cg2d: Sum(rhs),rhsMax =  -6.83771206389061E-03  2.15486947706668E-01
(PID.TID 0000.0001)      cg2d_init_res =   4.00335574648433E-04
(PID.TID 0000.0001)      cg2d_iters(min,last) =      -1      71
(PID.TID 0000.0001)      cg2d_last_res =   8.69324302779528E-08
(PID.TID 0000.0001) // =======================================================
(PID.TID 0000.0001) // Begin MONITOR dynamic field statistics
(PID.TID 0000.0001) // =======================================================
(PID.TID 0000.0001) %MON time_tsnumber                =                 15912
(PID.TID 0000.0001) %MON time_secondsf                =   1.9094400000000E+07
(PID.TID 0000.0001) %MON dynstat_eta_max              =   3.3711454512124E-01
(PID.TID 0000.0001) %MON dynstat_eta_min              =  -1.0801862857052E-01
(PID.TID 0000.0001) %MON dynstat_eta_mean             =   7.3639938377137E-06
(PID.TID 0000.0001) %MON dynstat_eta_sd               =   1.3062230090507E-01
(PID.TID 0000.0001) %MON dynstat_eta_del2             =   3.3911420458086E-05
(PID.TID 0000.0001) %MON dynstat_uvel_max             =   1.6456573550230E-01
(PID.TID 0000.0001) %MON dynstat_uvel_min             =  -1.2729110083948E-01
(PID.TID 0000.0001) %MON dynstat_uvel_mean            =   1.1638466375004E-08
(PID.TID 0000.0001) %MON dynstat_uvel_sd              =   5.3466487627183E-02
(PID.TID 0000.0001) %MON dynstat_uvel_del2            =   7.4470118869315E-05
(PID.TID 0000.0001) %MON dynstat_vvel_max             =   1.0945574563983E-01
(PID.TID 0000.0001) %MON dynstat_vvel_min             =  -1.3723677028288E-01
(PID.TID 0000.0001) %MON dynstat_vvel_mean            =   5.3560666322686E-08
(PID.TID 0000.0001) %MON dynstat_vvel_sd              =   4.8788002664691E-02
(PID.TID 0000.0001) %MON dynstat_vvel_del2            =   3.7142204172899E-05
(PID.TID 0000.0001) %MON dynstat_wvel_max             =   1.3727183692390E-08
(PID.TID 0000.0001) %MON dynstat_wvel_min             =  -4.9790894635953E-09
(PID.TID 0000.0001) %MON dynstat_wvel_mean            =   9.8271257482136E-21
(PID.TID 0000.0001) %MON dynstat_wvel_sd              =   4.7605838756022E-09
(PID.TID 0000.0001) %MON dynstat_wvel_del2            =   1.4346001599757E-12
(PID.TID 0000.0001) %MON dynstat_theta_max            =   2.0000000000000E+01
(PID.TID 0000.0001) %MON dynstat_theta_min            =   2.0000000000000E+01
(PID.TID 0000.0001) %MON dynstat_theta_mean           =   2.0000000000000E+01
(PID.TID 0000.0001) %MON dynstat_theta_sd             =   3.8014036363165E-13
(PID.TID 0000.0001) %MON dynstat_theta_del2           =   0.0000000000000E+00
(PID.TID 0000.0001) %MON dynstat_salt_max             =   3.0000000000000E+01
(PID.TID 0000.0001) %MON dynstat_salt_min             =   3.0000000000000E+01
(PID.TID 0000.0001) %MON dynstat_salt_mean            =   2.9999999999999E+01
(PID.TID 0000.0001) %MON dynstat_salt_sd              =   5.5777604757167E-13
(PID.TID 0000.0001) %MON dynstat_salt_del2            =   0.0000000000000E+00
(PID.TID 0000.0001) %MON trAdv_CFL_u_max              =   9.8729244071877E-03
(PID.TID 0000.0001) %MON trAdv_CFL_v_max              =   8.2230800444799E-03
(PID.TID 0000.0001) %MON trAdv_CFL_w_max              =   3.6399912338184E-09
(PID.TID 0000.0001) %MON advcfl_uvel_max              =   9.8739441301382E-03
(PID.TID 0000.0001) %MON advcfl_vvel_max              =   8.2342062169728E-03
(PID.TID 0000.0001) %MON advcfl_wvel_max              =   6.5890481723472E-09
(PID.TID 0000.0001) %MON advcfl_W_hf_max              =   0.0000000000000E+00
(PID.TID 0000.0001) %MON pe_b_mean                    =   1.7492744546162E-05
(PID.TID 0000.0001) %MON ke_max                       =   1.3558928008000E-02
(PID.TID 0000.0001) %MON ke_mean                      =   2.5712988740472E-03
(PID.TID 0000.0001) %MON ke_vol                       =   6.8893493896486E+15
(PID.TID 0000.0001) %MON vort_r_min                   =  -9.9839992684474E-07
(PID.TID 0000.0001) %MON vort_r_max                   =   3.5376417488584E-06
(PID.TID 0000.0001) %MON vort_a_mean                  =   1.0600000000000E-04
(PID.TID 0000.0001) %MON vort_a_sd                    =   3.5719551959438E-06
(PID.TID 0000.0001) %MON vort_p_mean                  =   1.1652272308690E-04
(PID.TID 0000.0001) %MON vort_p_sd                    =   4.1791023452717E-05
(PID.TID 0000.0001) %MON surfExpan_theta_mean         =   1.9656896110831E-19
(PID.TID 0000.0001) %MON surfExpan_salt_mean          =   2.9484807188377E-19
(PID.TID 0000.0001) // =======================================================
(PID.TID 0000.0001) // End MONITOR dynamic field statistics
(PID.TID 0000.0001) // =======================================================
 cg2d: Sum(rhs),rhsMax =  -6.83811892173059E-03  2.15491107543959E-01
 cg2d: Sum(rhs),rhsMax =  -6.83852493328749E-03  2.15495267198677E-01
 cg2d: Sum(rhs),rhsMax =  -6.83893009435192E-03  2.15499426675438E-01
 cg2d: Sum(rhs),rhsMax =  -6.83933440210866E-03  2.15503585978845E-01
 cg2d: Sum(rhs),rhsMax =  -6.83973785232201E-03  2.15507745113508E-01
 cg2d: Sum(rhs),rhsMax =  -6.84014044150839E-03  2.15511904084038E-01
 cg2d: Sum(rhs),rhsMax =  -6.84054216568570E-03  2.15516062895027E-01
 cg2d: Sum(rhs),rhsMax =  -6.84094302131319E-03  2.15520221551099E-01
 cg2d: Sum(rhs),rhsMax =  -6.84134300461098E-03  2.15524380056841E-01
 cg2d: Sum(rhs),rhsMax =  -6.84174211145898E-03  2.15528538416869E-01
 cg2d: Sum(rhs),rhsMax =  -6.84214033874352E-03  2.15532696635778E-01
 cg2d: Sum(rhs),rhsMax =  -6.84253768225533E-03  2.15536854718173E-01
 cg2d: Sum(rhs),rhsMax =  -6.84293413868653E-03  2.15541012668651E-01
 cg2d: Sum(rhs),rhsMax =  -6.84332970351624E-03  2.15545170491816E-01
 cg2d: Sum(rhs),rhsMax =  -6.84372437362842E-03  2.15549328192264E-01
 cg2d: Sum(rhs),rhsMax =  -6.84411814514206E-03  2.15553485774587E-01
 cg2d: Sum(rhs),rhsMax =  -6.84451101397313E-03  2.15557643243387E-01
 cg2d: Sum(rhs),rhsMax =  -6.84490297645802E-03  2.15561800603260E-01
 cg2d: Sum(rhs),rhsMax =  -6.84529402882568E-03  2.15565957858798E-01
 cg2d: Sum(rhs),rhsMax =  -6.84568416746804E-03  2.15570115014590E-01
 cg2d: Sum(rhs),rhsMax =  -6.84607338827087E-03  2.15574272075234E-01
 cg2d: Sum(rhs),rhsMax =  -6.84646168764011E-03  2.15578429045317E-01
 cg2d: Sum(rhs),rhsMax =  -6.84684906161833E-03  2.15582585929426E-01
 cg2d: Sum(rhs),rhsMax =  -6.84723550648372E-03  2.15586742732159E-01
 cg2d: Sum(rhs),rhsMax =  -6.84762101853561E-03  2.15590899458091E-01
 cg2d: Sum(rhs),rhsMax =  -6.84800559342861E-03  2.15595056111813E-01
 cg2d: Sum(rhs),rhsMax =  -6.84838922753744E-03  2.15599212697912E-01
 cg2d: Sum(rhs),rhsMax =  -6.84877191737068E-03  2.15603369220962E-01
 cg2d: Sum(rhs),rhsMax =  -6.84915365877081E-03  2.15607525685553E-01
 cg2d: Sum(rhs),rhsMax =  -6.84953444800510E-03  2.15611682096262E-01
 cg2d: Sum(rhs),rhsMax =  -6.84991428082414E-03  2.15615838457671E-01
 cg2d: Sum(rhs),rhsMax =  -6.85029315414295E-03  2.15619994774356E-01
 cg2d: Sum(rhs),rhsMax =  -6.85067106323266E-03  2.15624151050891E-01
 cg2d: Sum(rhs),rhsMax =  -6.85104800504758E-03  2.15628307291854E-01
 cg2d: Sum(rhs),rhsMax =  -6.85142397490682E-03  2.15632463501818E-01
 cg2d: Sum(rhs),rhsMax =  -6.85179896985399E-03  2.15636619685351E-01
 cg2d: Sum(rhs),rhsMax =  -6.85217298503528E-03  2.15640775847022E-01
 cg2d: Sum(rhs),rhsMax =  -6.85254601703673E-03  2.15644931991414E-01
 cg2d: Sum(rhs),rhsMax =  -6.85291806191846E-03  2.15649088123082E-01
 cg2d: Sum(rhs),rhsMax =  -6.85328911601703E-03  2.15653244246592E-01
 cg2d: Sum(rhs),rhsMax =  -6.85365917490902E-03  2.15657400366517E-01
 cg2d: Sum(rhs),rhsMax =  -6.85402823532710E-03  2.15661556487405E-01
 cg2d: Sum(rhs),rhsMax =  -6.85439629289521E-03  2.15665712613830E-01
 cg2d: Sum(rhs),rhsMax =  -6.85476334371011E-03  2.15669868750352E-01
 cg2d: Sum(rhs),rhsMax =  -6.85512938433050E-03  2.15674024901516E-01
 cg2d: Sum(rhs),rhsMax =  -6.85549441046978E-03  2.15678181071892E-01
 cg2d: Sum(rhs),rhsMax =  -6.85585841861503E-03  2.15682337266024E-01
 cg2d: Sum(rhs),rhsMax =  -6.85622140454436E-03  2.15686493488475E-01
 cg2d: Sum(rhs),rhsMax =  -6.85658336415459E-03  2.15690649743785E-01
 cg2d: Sum(rhs),rhsMax =  -6.85694429407094E-03  2.15694806036511E-01
 cg2d: Sum(rhs),rhsMax =  -6.85730418997876E-03  2.15698962371201E-01
 cg2d: Sum(rhs),rhsMax =  -6.85766304784485E-03  2.15703118752400E-01
 cg2d: Sum(rhs),rhsMax =  -6.85802086401019E-03  2.15707275184649E-01
 cg2d: Sum(rhs),rhsMax =  -6.85837763494123E-03  2.15711431672492E-01
 cg2d: Sum(rhs),rhsMax =  -6.85873335619592E-03  2.15715588220466E-01
 cg2d: Sum(rhs),rhsMax =  -6.85908802429345E-03  2.15719744833115E-01
 cg2d: Sum(rhs),rhsMax =  -6.85944163478693E-03  2.15723901514974E-01
 cg2d: Sum(rhs),rhsMax =  -6.85979418383538E-03  2.15728058270576E-01
 cg2d: Sum(rhs),rhsMax =  -6.86014566794377E-03  2.15732215104453E-01
 cg2d: Sum(rhs),rhsMax =  -6.86049608294239E-03  2.15736372021143E-01
 cg2d: Sum(rhs),rhsMax =  -6.86084542522040E-03  2.15740529025161E-01
 cg2d: Sum(rhs),rhsMax =  -6.86119369056780E-03  2.15744686121049E-01
 cg2d: Sum(rhs),rhsMax =  -6.86154087556516E-03  2.15748843313316E-01
 cg2d: Sum(rhs),rhsMax =  -6.86188697577646E-03  2.15753000606500E-01
 cg2d: Sum(rhs),rhsMax =  -6.86223198752528E-03  2.15757158005113E-01
 cg2d: Sum(rhs),rhsMax =  -6.86256777226111E-03  2.15761571267910E-01
 cg2d: Sum(rhs),rhsMax =  -6.86289844524971E-03  2.15766110874841E-01
 cg2d: Sum(rhs),rhsMax =  -6.86322802171965E-03  2.15770650477533E-01
 cg2d: Sum(rhs),rhsMax =  -6.86355649711518E-03  2.15775190080194E-01
 cg2d: Sum(rhs),rhsMax =  -6.86388386818147E-03  2.15779729687018E-01
 cg2d: Sum(rhs),rhsMax =  -6.86421013101643E-03  2.15784269302221E-01
 cg2d: Sum(rhs),rhsMax =  -6.86453528156940E-03  2.15788808930000E-01
(PID.TID 0000.0001)      cg2d_init_res =   3.98800074592705E-04
(PID.TID 0000.0001)      cg2d_iters(min,last) =      -1      71
(PID.TID 0000.0001)      cg2d_last_res =   8.38230813135948E-08
(PID.TID 0000.0001) // =======================================================
(PID.TID 0000.0001) // Begin MONITOR dynamic field statistics
(PID.TID 0000.0001) // =======================================================
(PID.TID 0000.0001) %MON time_tsnumber                =                 15984
(PID.TID 0000.0001) %MON time_secondsf                =   1.9180800000000E+07
(PID.TID 0000.0001) %MON dynstat_eta_max              =   3.3826145245919E-01
(PID.TID 0000.0001) %MON dynstat_eta_min              =  -1.0836562059032E-01
(PID.TID 0000.0001) %MON dynstat_eta_mean             =   7.4031595555126E-06
(PID.TID 0000.0001) %MON dynstat_eta_sd               =   1.3101014599838E-01
(PID.TID 0000.0001) %MON dynstat_eta_del2             =   3.3985843991736E-05
(PID.TID 0000.0001) %MON dynstat_uvel_max             =   1.6484986957470E-01
(PID.TID 0000.0001) %MON dynstat_uvel_min             =  -1.2762264853676E-01
(PID.TID 0000.0001) %MON dynstat_uvel_mean            =   1.1676100085448E-09
(PID.TID 0000.0001) %MON dynstat_uvel_sd              =   5.3607919490111E-02
(PID.TID 0000.0001) %MON dynstat_uvel_del2            =   7.4529141571234E-05
(PID.TID 0000.0001) %MON dynstat_vvel_max             =   1.0989402223940E-01
(PID.TID 0000.0001) %MON dynstat_vvel_min             =  -1.3771892782462E-01
(PID.TID 0000.0001) %MON dynstat_vvel_mean            =   5.0984339606901E-08
(PID.TID 0000.0001) %MON dynstat_vvel_sd              =   4.8946062970291E-02
(PID.TID 0000.0001) %MON dynstat_vvel_del2            =   3.7088796922479E-05
(PID.TID 0000.0001) %MON dynstat_wvel_max             =   1.3739910734002E-08
(PID.TID 0000.0001) %MON dynstat_wvel_min             =  -4.8923706309870E-09
(PID.TID 0000.0001) %MON dynstat_wvel_mean            =   3.6579336261234E-21
(PID.TID 0000.0001) %MON dynstat_wvel_sd              =   4.7478666161678E-09
(PID.TID 0000.0001) %MON dynstat_wvel_del2            =   1.4285189764208E-12
(PID.TID 0000.0001) %MON dynstat_theta_max            =   2.0000000000000E+01
(PID.TID 0000.0001) %MON dynstat_theta_min            =   2.0000000000000E+01
(PID.TID 0000.0001) %MON dynstat_theta_mean           =   2.0000000000000E+01
(PID.TID 0000.0001) %MON dynstat_theta_sd             =   3.8014036363165E-13
(PID.TID 0000.0001) %MON dynstat_theta_del2           =   0.0000000000000E+00
(PID.TID 0000.0001) %MON dynstat_salt_max             =   3.0000000000000E+01
(PID.TID 0000.0001) %MON dynstat_salt_min             =   3.0000000000000E+01
(PID.TID 0000.0001) %MON dynstat_salt_mean            =   2.9999999999999E+01
(PID.TID 0000.0001) %MON dynstat_salt_sd              =   5.5777604757167E-13
(PID.TID 0000.0001) %MON dynstat_salt_del2            =   0.0000000000000E+00
(PID.TID 0000.0001) %MON trAdv_CFL_u_max              =   9.8899762539152E-03
(PID.TID 0000.0001) %MON trAdv_CFL_v_max              =   8.2519772247506E-03
(PID.TID 0000.0001) %MON trAdv_CFL_w_max              =   3.6433987445540E-09
(PID.TID 0000.0001) %MON advcfl_uvel_max              =   9.8909921744822E-03
(PID.TID 0000.0001) %MON advcfl_vvel_max              =   8.2631356694772E-03
(PID.TID 0000.0001) %MON advcfl_wvel_max              =   6.5951571523212E-09
(PID.TID 0000.0001) %MON advcfl_W_hf_max              =   0.0000000000000E+00
(PID.TID 0000.0001) %MON pe_b_mean                    =   1.7596778043931E-05
(PID.TID 0000.0001) %MON ke_max                       =   1.3606695120187E-02
(PID.TID 0000.0001) %MON ke_mean                      =   2.5863134099455E-03
(PID.TID 0000.0001) %MON ke_vol                       =   6.8893493896486E+15
(PID.TID 0000.0001) %MON vort_r_min                   =  -1.0017152960691E-06
(PID.TID 0000.0001) %MON vort_r_max                   =   3.5436164823702E-06
(PID.TID 0000.0001) %MON vort_a_mean                  =   1.0600000000000E-04
(PID.TID 0000.0001) %MON vort_a_sd                    =   3.5721484119746E-06
(PID.TID 0000.0001) %MON vort_p_mean                  =   1.1652272308690E-04
(PID.TID 0000.0001) %MON vort_p_sd                    =   4.1791091308871E-05
(PID.TID 0000.0001) %MON surfExpan_theta_mean         =   7.3168848757632E-20
(PID.TID 0000.0001) %MON surfExpan_salt_mean          =   1.0974411503008E-19
(PID.TID 0000.0001) // =======================================================
(PID.TID 0000.0001) // End MONITOR dynamic field statistics
(PID.TID 0000.0001) // =======================================================
 cg2d: Sum(rhs),rhsMax =  -6.86485931623994E-03  2.15793348574551E-01
 cg2d: Sum(rhs),rhsMax =  -6.86518223089658E-03  2.15797888240081E-01
 cg2d: Sum(rhs),rhsMax =  -6.86550402194981E-03  2.15802427930781E-01
 cg2d: Sum(rhs),rhsMax =  -6.86582468574149E-03  2.15806967650846E-01
 cg2d: Sum(rhs),rhsMax =  -6.86614421839074E-03  2.15811507404471E-01
 cg2d: Sum(rhs),rhsMax =  -6.86646261585859E-03  2.15816047195851E-01
 cg2d: Sum(rhs),rhsMax =  -6.86677987438424E-03  2.15820587029174E-01
 cg2d: Sum(rhs),rhsMax =  -6.86709599080575E-03  2.15825126908626E-01
 cg2d: Sum(rhs),rhsMax =  -6.86741096111015E-03  2.15829666838401E-01
 cg2d: Sum(rhs),rhsMax =  -6.86772478119334E-03  2.15834206822680E-01
 cg2d: Sum(rhs),rhsMax =  -6.86803744719874E-03  2.15838746865652E-01
 cg2d: Sum(rhs),rhsMax =  -6.86834895618308E-03  2.15843286971501E-01
 cg2d: Sum(rhs),rhsMax =  -6.86865930385647E-03  2.15847827144395E-01
 cg2d: Sum(rhs),rhsMax =  -6.86896848655224E-03  2.15852367388524E-01
 cg2d: Sum(rhs),rhsMax =  -6.86927650091461E-03  2.15856907708067E-01
 cg2d: Sum(rhs),rhsMax =  -6.86958334320436E-03  2.15861448107189E-01
 cg2d: Sum(rhs),rhsMax =  -6.86988900965116E-03  2.15865988590075E-01
 cg2d: Sum(rhs),rhsMax =  -6.87019349606863E-03  2.15870529160890E-01
 cg2d: Sum(rhs),rhsMax =  -6.87049679963922E-03  2.15875069823808E-01
 cg2d: Sum(rhs),rhsMax =  -6.87079891647556E-03  2.15879610582996E-01
 cg2d: Sum(rhs),rhsMax =  -6.87109984316506E-03  2.15884151442612E-01
 cg2d: Sum(rhs),rhsMax =  -6.87139957592059E-03  2.15888692406833E-01
 cg2d: Sum(rhs),rhsMax =  -6.87169811107910E-03  2.15893233479820E-01
 cg2d: Sum(rhs),rhsMax =  -6.87199544515350E-03  2.15897774665728E-01
 cg2d: Sum(rhs),rhsMax =  -6.87229157476179E-03  2.15902315968719E-01
 cg2d: Sum(rhs),rhsMax =  -6.87258649618521E-03  2.15906857392951E-01
 cg2d: Sum(rhs),rhsMax =  -6.87288020637598E-03  2.15911398942573E-01
 cg2d: Sum(rhs),rhsMax =  -6.87317270165741E-03  2.15915940621744E-01
 cg2d: Sum(rhs),rhsMax =  -6.87346397844532E-03  2.15920482434615E-01
 cg2d: Sum(rhs),rhsMax =  -6.87375403334365E-03  2.15925024385332E-01
 cg2d: Sum(rhs),rhsMax =  -6.87404286313571E-03  2.15929566478039E-01
 cg2d: Sum(rhs),rhsMax =  -6.87433046436842E-03  2.15934108716889E-01
 cg2d: Sum(rhs),rhsMax =  -6.87461683335702E-03  2.15938651106019E-01
 cg2d: Sum(rhs),rhsMax =  -6.87490196665990E-03  2.15943193649570E-01
 cg2d: Sum(rhs),rhsMax =  -6.87518586183758E-03  2.15947736351680E-01
 cg2d: Sum(rhs),rhsMax =  -6.87546851510972E-03  2.15952279216489E-01
 cg2d: Sum(rhs),rhsMax =  -6.87574992330326E-03  2.15956822248125E-01
 cg2d: Sum(rhs),rhsMax =  -6.87603008311062E-03  2.15961365450727E-01
 cg2d: Sum(rhs),rhsMax =  -6.87630899139172E-03  2.15965908828424E-01
 cg2d: Sum(rhs),rhsMax =  -6.87658664472945E-03  2.15970452385336E-01
 cg2d: Sum(rhs),rhsMax =  -6.87686303993738E-03  2.15974996125596E-01
 cg2d: Sum(rhs),rhsMax =  -6.87713817471667E-03  2.15979540053322E-01
 cg2d: Sum(rhs),rhsMax =  -6.87741204496966E-03  2.15984084172644E-01
 cg2d: Sum(rhs),rhsMax =  -6.87768464812911E-03  2.15988628487666E-01
 cg2d: Sum(rhs),rhsMax =  -6.87795598088065E-03  2.15993173002514E-01
 cg2d: Sum(rhs),rhsMax =  -6.87822604047126E-03  2.15997717721303E-01
 cg2d: Sum(rhs),rhsMax =  -6.87849482390838E-03  2.16002262648139E-01
 cg2d: Sum(rhs),rhsMax =  -6.87876232831667E-03  2.16006807787132E-01
 cg2d: Sum(rhs),rhsMax =  -6.87902855070540E-03  2.16011353142395E-01
 cg2d: Sum(rhs),rhsMax =  -6.87929348826145E-03  2.16015898718024E-01
 cg2d: Sum(rhs),rhsMax =  -6.87955713817134E-03  2.16020444518130E-01
 cg2d: Sum(rhs),rhsMax =  -6.87981949732535E-03  2.16024990546805E-01
 cg2d: Sum(rhs),rhsMax =  -6.88008056366088E-03  2.16029536808148E-01
 cg2d: Sum(rhs),rhsMax =  -6.88034033374417E-03  2.16034083306258E-01
 cg2d: Sum(rhs),rhsMax =  -6.88059880545314E-03  2.16038630045217E-01
 cg2d: Sum(rhs),rhsMax =  -6.88085597576349E-03  2.16043177029128E-01
 cg2d: Sum(rhs),rhsMax =  -6.88111184229379E-03  2.16047724262074E-01
 cg2d: Sum(rhs),rhsMax =  -6.88136640235093E-03  2.16052271748129E-01
 cg2d: Sum(rhs),rhsMax =  -6.88161965367720E-03  2.16056819491385E-01
 cg2d: Sum(rhs),rhsMax =  -6.88187159339101E-03  2.16061367495924E-01
 cg2d: Sum(rhs),rhsMax =  -6.88212221954602E-03  2.16065915765814E-01
 cg2d: Sum(rhs),rhsMax =  -6.88237152951351E-03  2.16070464305136E-01
 cg2d: Sum(rhs),rhsMax =  -6.88261952114918E-03  2.16075013117957E-01
 cg2d: Sum(rhs),rhsMax =  -6.88286619152949E-03  2.16079562208351E-01
 cg2d: Sum(rhs),rhsMax =  -6.88311153898557E-03  2.16084111580380E-01
 cg2d: Sum(rhs),rhsMax =  -6.88335556090083E-03  2.16088661238107E-01
 cg2d: Sum(rhs),rhsMax =  -6.88359825569329E-03  2.16093211185600E-01
 cg2d: Sum(rhs),rhsMax =  -6.88383962079798E-03  2.16097761426907E-01
 cg2d: Sum(rhs),rhsMax =  -6.88407965440698E-03  2.16102311966094E-01
 cg2d: Sum(rhs),rhsMax =  -6.88431835494884E-03  2.16106862807198E-01
 cg2d: Sum(rhs),rhsMax =  -6.88455571955180E-03  2.16111413954285E-01
 cg2d: Sum(rhs),rhsMax =  -6.88479174702363E-03  2.16115965411399E-01
(PID.TID 0000.0001)      cg2d_init_res =   3.97117025489675E-04
(PID.TID 0000.0001)      cg2d_iters(min,last) =      -1      71
(PID.TID 0000.0001)      cg2d_last_res =   8.04463104959966E-08
(PID.TID 0000.0001) // =======================================================
(PID.TID 0000.0001) // Begin MONITOR dynamic field statistics
(PID.TID 0000.0001) // =======================================================
(PID.TID 0000.0001) %MON time_tsnumber                =                 16056
(PID.TID 0000.0001) %MON time_secondsf                =   1.9267200000000E+07
(PID.TID 0000.0001) %MON dynstat_eta_max              =   3.3940530339407E-01
(PID.TID 0000.0001) %MON dynstat_eta_min              =  -1.0871568367133E-01
(PID.TID 0000.0001) %MON dynstat_eta_mean             =   7.4361651081781E-06
(PID.TID 0000.0001) %MON dynstat_eta_sd               =   1.3139798614243E-01
(PID.TID 0000.0001) %MON dynstat_eta_del2             =   3.4060052126015E-05
(PID.TID 0000.0001) %MON dynstat_uvel_max             =   1.6512838160050E-01
(PID.TID 0000.0001) %MON dynstat_uvel_min             =  -1.2794652150887E-01
(PID.TID 0000.0001) %MON dynstat_uvel_mean            =  -9.8115503057861E-09
(PID.TID 0000.0001) %MON dynstat_uvel_sd              =   5.3747813561248E-02
(PID.TID 0000.0001) %MON dynstat_uvel_del2            =   7.4585452441171E-05
(PID.TID 0000.0001) %MON dynstat_vvel_max             =   1.1033576470280E-01
(PID.TID 0000.0001) %MON dynstat_vvel_min             =  -1.3819370742692E-01
(PID.TID 0000.0001) %MON dynstat_vvel_mean            =   4.9769217409165E-08
(PID.TID 0000.0001) %MON dynstat_vvel_sd              =   4.9105761700904E-02
(PID.TID 0000.0001) %MON dynstat_vvel_del2            =   3.7042146844397E-05
(PID.TID 0000.0001) %MON dynstat_wvel_max             =   1.3742878874182E-08
(PID.TID 0000.0001) %MON dynstat_wvel_min             =  -4.7908400488086E-09
(PID.TID 0000.0001) %MON dynstat_wvel_mean            =   7.2951182674943E-21
(PID.TID 0000.0001) %MON dynstat_wvel_sd              =   4.7355458301959E-09
(PID.TID 0000.0001) %MON dynstat_wvel_del2            =   1.4215242637800E-12
(PID.TID 0000.0001) %MON dynstat_theta_max            =   2.0000000000000E+01
(PID.TID 0000.0001) %MON dynstat_theta_min            =   2.0000000000000E+01
(PID.TID 0000.0001) %MON dynstat_theta_mean           =   2.0000000000000E+01
(PID.TID 0000.0001) %MON dynstat_theta_sd             =   3.8014036363165E-13
(PID.TID 0000.0001) %MON dynstat_theta_del2           =   0.0000000000000E+00
(PID.TID 0000.0001) %MON dynstat_salt_max             =   3.0000000000000E+01
(PID.TID 0000.0001) %MON dynstat_salt_min             =   3.0000000000000E+01
(PID.TID 0000.0001) %MON dynstat_salt_mean            =   2.9999999999999E+01
(PID.TID 0000.0001) %MON dynstat_salt_sd              =   5.5777604757167E-13
(PID.TID 0000.0001) %MON dynstat_salt_del2            =   0.0000000000000E+00
(PID.TID 0000.0001) %MON trAdv_CFL_u_max              =   9.9066898756015E-03
(PID.TID 0000.0001) %MON trAdv_CFL_v_max              =   8.2804337324652E-03
(PID.TID 0000.0001) %MON trAdv_CFL_w_max              =   3.6442248075147E-09
(PID.TID 0000.0001) %MON advcfl_uvel_max              =   9.9077028960300E-03
(PID.TID 0000.0001) %MON advcfl_vvel_max              =   8.2916224456150E-03
(PID.TID 0000.0001) %MON advcfl_wvel_max              =   6.5965818596072E-09
(PID.TID 0000.0001) %MON advcfl_W_hf_max              =   0.0000000000000E+00
(PID.TID 0000.0001) %MON pe_b_mean                    =   1.7701118647573E-05
(PID.TID 0000.0001) %MON ke_max                       =   1.3653576617574E-02
(PID.TID 0000.0001) %MON ke_mean                      =   2.6013699457257E-03
(PID.TID 0000.0001) %MON ke_vol                       =   6.8893493896486E+15
(PID.TID 0000.0001) %MON vort_r_min                   =  -1.0049705031201E-06
(PID.TID 0000.0001) %MON vort_r_max                   =   3.5494543713205E-06
(PID.TID 0000.0001) %MON vort_a_mean                  =   1.0600000000000E-04
(PID.TID 0000.0001) %MON vort_a_sd                    =   3.5723430410999E-06
(PID.TID 0000.0001) %MON vort_p_mean                  =   1.1652272308690E-04
(PID.TID 0000.0001) %MON vort_p_sd                    =   4.1791158640240E-05
(PID.TID 0000.0001) %MON surfExpan_theta_mean         =   1.4592494866782E-19
(PID.TID 0000.0001) %MON surfExpan_salt_mean          =   2.1888773756492E-19
(PID.TID 0000.0001) // =======================================================
(PID.TID 0000.0001) // End MONITOR dynamic field statistics
(PID.TID 0000.0001) // =======================================================
 cg2d: Sum(rhs),rhsMax =  -6.88502643515376E-03  2.16120517182572E-01
 cg2d: Sum(rhs),rhsMax =  -6.88525978210466E-03  2.16125069271860E-01
 cg2d: Sum(rhs),rhsMax =  -6.88549178656911E-03  2.16129621683296E-01
 cg2d: Sum(rhs),rhsMax =  -6.88572244603354E-03  2.16134174420914E-01
 cg2d: Sum(rhs),rhsMax =  -6.88595175973297E-03  2.16138727488749E-01
 cg2d: Sum(rhs),rhsMax =  -6.88617972593114E-03  2.16143280890825E-01
 cg2d: Sum(rhs),rhsMax =  -6.88640634321029E-03  2.16147834631180E-01
 cg2d: Sum(rhs),rhsMax =  -6.88663160946630E-03  2.16152388713826E-01
 cg2d: Sum(rhs),rhsMax =  -6.88685552414664E-03  2.16156943142792E-01
 cg2d: Sum(rhs),rhsMax =  -6.88707808537961E-03  2.16161497922091E-01
 cg2d: Sum(rhs),rhsMax =  -6.88729929246743E-03  2.16166053055745E-01
 cg2d: Sum(rhs),rhsMax =  -6.88751914348025E-03  2.16170608547758E-01
 cg2d: Sum(rhs),rhsMax =  -6.88773763782041E-03  2.16175164402140E-01
 cg2d: Sum(rhs),rhsMax =  -6.88795477417379E-03  2.16179720622902E-01
 cg2d: Sum(rhs),rhsMax =  -6.88817055153839E-03  2.16184277214038E-01
 cg2d: Sum(rhs),rhsMax =  -6.88838496926635E-03  2.16188834179555E-01
 cg2d: Sum(rhs),rhsMax =  -6.88859802617536E-03  2.16193391523450E-01
 cg2d: Sum(rhs),rhsMax =  -6.88880972160969E-03  2.16197949249714E-01
 cg2d: Sum(rhs),rhsMax =  -6.88902005484233E-03  2.16202507362333E-01
 cg2d: Sum(rhs),rhsMax =  -6.88922902500377E-03  2.16207065865300E-01
 cg2d: Sum(rhs),rhsMax =  -6.88943663199124E-03  2.16211624762596E-01
 cg2d: Sum(rhs),rhsMax =  -6.88964287498955E-03  2.16216184058200E-01
 cg2d: Sum(rhs),rhsMax =  -6.88984775351967E-03  2.16220743756093E-01
 cg2d: Sum(rhs),rhsMax =  -6.89005126721218E-03  2.16225303860253E-01
 cg2d: Sum(rhs),rhsMax =  -6.89025341567708E-03  2.16229864374638E-01
 cg2d: Sum(rhs),rhsMax =  -6.89045419922837E-03  2.16234425303225E-01
 cg2d: Sum(rhs),rhsMax =  -6.89065361722766E-03  2.16238986649978E-01
 cg2d: Sum(rhs),rhsMax =  -6.89085166973930E-03  2.16243548418855E-01
 cg2d: Sum(rhs),rhsMax =  -6.89104835670424E-03  2.16248110613817E-01
 cg2d: Sum(rhs),rhsMax =  -6.89124367813735E-03  2.16252673238813E-01
 cg2d: Sum(rhs),rhsMax =  -6.89143763437240E-03  2.16257236297797E-01
 cg2d: Sum(rhs),rhsMax =  -6.89163022556295E-03  2.16261799794718E-01
 cg2d: Sum(rhs),rhsMax =  -6.89182145209781E-03  2.16266363733520E-01
 cg2d: Sum(rhs),rhsMax =  -6.89201131437193E-03  2.16270928118137E-01
 cg2d: Sum(rhs),rhsMax =  -6.89219981305081E-03  2.16275492952513E-01
 cg2d: Sum(rhs),rhsMax =  -6.89238694859763E-03  2.16280058240582E-01
 cg2d: Sum(rhs),rhsMax =  -6.89257272121632E-03  2.16284623986270E-01
 cg2d: Sum(rhs),rhsMax =  -6.89284761581222E-03  2.16289190510832E-01
 cg2d: Sum(rhs),rhsMax =  -6.89312124924124E-03  2.16293757165803E-01
 cg2d: Sum(rhs),rhsMax =  -6.89339331349843E-03  2.16298324307191E-01
 cg2d: Sum(rhs),rhsMax =  -6.89366388550483E-03  2.16302891921902E-01
 cg2d: Sum(rhs),rhsMax =  -6.89393296927423E-03  2.16307460009570E-01
 cg2d: Sum(rhs),rhsMax =  -6.89420056533377E-03  2.16312028576894E-01
 cg2d: Sum(rhs),rhsMax =  -6.89446667566627E-03  2.16316597629079E-01
 cg2d: Sum(rhs),rhsMax =  -6.89473130474510E-03  2.16321167170076E-01
 cg2d: Sum(rhs),rhsMax =  -6.89499445592386E-03  2.16325737203658E-01
 cg2d: Sum(rhs),rhsMax =  -6.89525613220627E-03  2.16330307733804E-01
 cg2d: Sum(rhs),rhsMax =  -6.89551633509681E-03  2.16334878764608E-01
 cg2d: Sum(rhs),rhsMax =  -6.89577506592652E-03  2.16339450300119E-01
 cg2d: Sum(rhs),rhsMax =  -6.89603232683058E-03  2.16344022344263E-01
 cg2d: Sum(rhs),rhsMax =  -6.89628811989137E-03  2.16348594900867E-01
 cg2d: Sum(rhs),rhsMax =  -6.89654244761097E-03  2.16353167973712E-01
 cg2d: Sum(rhs),rhsMax =  -6.89679531288137E-03  2.16357741566604E-01
 cg2d: Sum(rhs),rhsMax =  -6.89704671880345E-03  2.16362315683346E-01
 cg2d: Sum(rhs),rhsMax =  -6.89729666763140E-03  2.16366890327797E-01
 cg2d: Sum(rhs),rhsMax =  -6.89754516283003E-03  2.16371465503807E-01
 cg2d: Sum(rhs),rhsMax =  -6.89779220718820E-03  2.16376041215256E-01
 cg2d: Sum(rhs),rhsMax =  -6.89803780403109E-03  2.16380617466007E-01
 cg2d: Sum(rhs),rhsMax =  -6.89828195622355E-03  2.16385194259939E-01
 cg2d: Sum(rhs),rhsMax =  -6.89852466707035E-03  2.16389771600909E-01
 cg2d: Sum(rhs),rhsMax =  -6.89876594065262E-03  2.16394349492774E-01
 cg2d: Sum(rhs),rhsMax =  -6.89900577980116E-03  2.16398927939371E-01
 cg2d: Sum(rhs),rhsMax =  -6.89924418872134E-03  2.16403506944525E-01
 cg2d: Sum(rhs),rhsMax =  -6.89948117106402E-03  2.16408086512060E-01
 cg2d: Sum(rhs),rhsMax =  -6.89971673024144E-03  2.16412666645789E-01
 cg2d: Sum(rhs),rhsMax =  -6.89995087107877E-03  2.16417247349526E-01
 cg2d: Sum(rhs),rhsMax =  -6.90018359705796E-03  2.16421828627089E-01
 cg2d: Sum(rhs),rhsMax =  -6.90041491281285E-03  2.16426410482282E-01
 cg2d: Sum(rhs),rhsMax =  -6.90064482243253E-03  2.16430992918927E-01
 cg2d: Sum(rhs),rhsMax =  -6.90087333022813E-03  2.16435575940829E-01
 cg2d: Sum(rhs),rhsMax =  -6.90110044106265E-03  2.16440159551791E-01
 cg2d: Sum(rhs),rhsMax =  -6.90132615975838E-03  2.16444743755612E-01
(PID.TID 0000.0001)      cg2d_init_res =   3.95253045842288E-04
(PID.TID 0000.0001)      cg2d_iters(min,last) =      -1      70
(PID.TID 0000.0001)      cg2d_last_res =   9.82024019329197E-08
(PID.TID 0000.0001) // =======================================================
(PID.TID 0000.0001) // Begin MONITOR dynamic field statistics
(PID.TID 0000.0001) // =======================================================
(PID.TID 0000.0001) %MON time_tsnumber                =                 16128
(PID.TID 0000.0001) %MON time_secondsf                =   1.9353600000000E+07
(PID.TID 0000.0001) %MON dynstat_eta_max              =   3.4054595394415E-01
(PID.TID 0000.0001) %MON dynstat_eta_min              =  -1.0906677964664E-01
(PID.TID 0000.0001) %MON dynstat_eta_mean             =   7.4653526231402E-06
(PID.TID 0000.0001) %MON dynstat_eta_sd               =   1.3178581848695E-01
(PID.TID 0000.0001) %MON dynstat_eta_del2             =   3.4134090016902E-05
(PID.TID 0000.0001) %MON dynstat_uvel_max             =   1.6540242612315E-01
(PID.TID 0000.0001) %MON dynstat_uvel_min             =  -1.2826540952866E-01
(PID.TID 0000.0001) %MON dynstat_uvel_mean            =  -2.0934399460641E-08
(PID.TID 0000.0001) %MON dynstat_uvel_sd              =   5.3886635999706E-02
(PID.TID 0000.0001) %MON dynstat_uvel_del2            =   7.4639554421610E-05
(PID.TID 0000.0001) %MON dynstat_vvel_max             =   1.1078108801542E-01
(PID.TID 0000.0001) %MON dynstat_vvel_min             =  -1.3865953199152E-01
(PID.TID 0000.0001) %MON dynstat_vvel_mean            =   4.9967537048525E-08
(PID.TID 0000.0001) %MON dynstat_vvel_sd              =   4.9266547171407E-02
(PID.TID 0000.0001) %MON dynstat_vvel_del2            =   3.7002274931294E-05
(PID.TID 0000.0001) %MON dynstat_wvel_max             =   1.3737519442802E-08
(PID.TID 0000.0001) %MON dynstat_wvel_min             =  -4.6664558723569E-09
(PID.TID 0000.0001) %MON dynstat_wvel_mean            =  -1.4821443225325E-20
(PID.TID 0000.0001) %MON dynstat_wvel_sd              =   4.7239732719502E-09
(PID.TID 0000.0001) %MON dynstat_wvel_del2            =   1.4133591239364E-12
(PID.TID 0000.0001) %MON dynstat_theta_max            =   2.0000000000000E+01
(PID.TID 0000.0001) %MON dynstat_theta_min            =   2.0000000000000E+01
(PID.TID 0000.0001) %MON dynstat_theta_mean           =   2.0000000000000E+01
(PID.TID 0000.0001) %MON dynstat_theta_sd             =   3.8014036363165E-13
(PID.TID 0000.0001) %MON dynstat_theta_del2           =   0.0000000000000E+00
(PID.TID 0000.0001) %MON dynstat_salt_max             =   3.0000000000000E+01
(PID.TID 0000.0001) %MON dynstat_salt_min             =   3.0000000000000E+01
(PID.TID 0000.0001) %MON dynstat_salt_mean            =   2.9999999999999E+01
(PID.TID 0000.0001) %MON dynstat_salt_sd              =   5.5777604757167E-13
(PID.TID 0000.0001) %MON dynstat_salt_del2            =   0.0000000000000E+00
(PID.TID 0000.0001) %MON trAdv_CFL_u_max              =   9.9231344771876E-03
(PID.TID 0000.0001) %MON trAdv_CFL_v_max              =   8.3083548335293E-03
(PID.TID 0000.0001) %MON trAdv_CFL_w_max              =   3.6403690643227E-09
(PID.TID 0000.0001) %MON advcfl_uvel_max              =   9.9241455673891E-03
(PID.TID 0000.0001) %MON advcfl_vvel_max              =   8.3195719194911E-03
(PID.TID 0000.0001) %MON advcfl_wvel_max              =   6.5940093325451E-09
(PID.TID 0000.0001) %MON advcfl_W_hf_max              =   0.0000000000000E+00
(PID.TID 0000.0001) %MON pe_b_mean                    =   1.7805765575105E-05
(PID.TID 0000.0001) %MON ke_max                       =   1.3699750022784E-02
(PID.TID 0000.0001) %MON ke_mean                      =   2.6164665961478E-03
(PID.TID 0000.0001) %MON ke_vol                       =   6.8893493896486E+15
(PID.TID 0000.0001) %MON vort_r_min                   =  -1.0081659907740E-06
(PID.TID 0000.0001) %MON vort_r_max                   =   3.5551770092203E-06
(PID.TID 0000.0001) %MON vort_a_mean                  =   1.0600000000000E-04
(PID.TID 0000.0001) %MON vort_a_sd                    =   3.5725394083546E-06
(PID.TID 0000.0001) %MON vort_p_mean                  =   1.1652272308690E-04
(PID.TID 0000.0001) %MON vort_p_sd                    =   4.1791225949291E-05
(PID.TID 0000.0001) %MON surfExpan_theta_mean         =  -2.9638568883112E-19
(PID.TID 0000.0001) %MON surfExpan_salt_mean          =  -4.4457726882601E-19
(PID.TID 0000.0001) // =======================================================
(PID.TID 0000.0001) // End MONITOR dynamic field statistics
(PID.TID 0000.0001) // =======================================================
 cg2d: Sum(rhs),rhsMax =  -6.90155049054948E-03  2.16449328556088E-01
 cg2d: Sum(rhs),rhsMax =  -6.90177343847585E-03  2.16453913957003E-01
 cg2d: Sum(rhs),rhsMax =  -6.90199500886259E-03  2.16458499962145E-01
 cg2d: Sum(rhs),rhsMax =  -6.90221520634865E-03  2.16463086575293E-01
 cg2d: Sum(rhs),rhsMax =  -6.90243403682876E-03  2.16467673800214E-01
 cg2d: Sum(rhs),rhsMax =  -6.90265150506137E-03  2.16472261640682E-01
 cg2d: Sum(rhs),rhsMax =  -6.90286761631135E-03  2.16476850100469E-01
 cg2d: Sum(rhs),rhsMax =  -6.90308237689175E-03  2.16481439183336E-01
 cg2d: Sum(rhs),rhsMax =  -6.90329579202986E-03  2.16486028893040E-01
 cg2d: Sum(rhs),rhsMax =  -6.90350786754544E-03  2.16490619233336E-01
 cg2d: Sum(rhs),rhsMax =  -6.90371860941812E-03  2.16495210207976E-01
 cg2d: Sum(rhs),rhsMax =  -6.90392802394118E-03  2.16499801820710E-01
 cg2d: Sum(rhs),rhsMax =  -6.90413611675169E-03  2.16504394075275E-01
 cg2d: Sum(rhs),rhsMax =  -6.90434289431123E-03  2.16508986975408E-01
 cg2d: Sum(rhs),rhsMax =  -6.90454836289137E-03  2.16513580524842E-01
 cg2d: Sum(rhs),rhsMax =  -6.90475252915109E-03  2.16518174727306E-01
 cg2d: Sum(rhs),rhsMax =  -6.90495539923384E-03  2.16522769586525E-01
 cg2d: Sum(rhs),rhsMax =  -6.90515698062493E-03  2.16527365106216E-01
 cg2d: Sum(rhs),rhsMax =  -6.90535727948280E-03  2.16531961290098E-01
 cg2d: Sum(rhs),rhsMax =  -6.90555630297620E-03  2.16536558141875E-01
 cg2d: Sum(rhs),rhsMax =  -6.90575405829688E-03  2.16541155665259E-01
 cg2d: Sum(rhs),rhsMax =  -6.90595055197314E-03  2.16545753863950E-01
 cg2d: Sum(rhs),rhsMax =  -6.90614579220380E-03  2.16550352741642E-01
 cg2d: Sum(rhs),rhsMax =  -6.90633978561393E-03  2.16554952302039E-01
 cg2d: Sum(rhs),rhsMax =  -6.90653253978666E-03  2.16559552548813E-01
 cg2d: Sum(rhs),rhsMax =  -6.90672406230412E-03  2.16564153485657E-01
 cg2d: Sum(rhs),rhsMax =  -6.90691436106321E-03  2.16568755116248E-01
 cg2d: Sum(rhs),rhsMax =  -6.90710344375856E-03  2.16573357444263E-01
 cg2d: Sum(rhs),rhsMax =  -6.90729131887743E-03  2.16577960473364E-01
 cg2d: Sum(rhs),rhsMax =  -6.90747799370466E-03  2.16582564207221E-01
 cg2d: Sum(rhs),rhsMax =  -6.90766347644339E-03  2.16587168649500E-01
 cg2d: Sum(rhs),rhsMax =  -6.90784777532176E-03  2.16591773803845E-01
 cg2d: Sum(rhs),rhsMax =  -6.90803089898299E-03  2.16596379673910E-01
 cg2d: Sum(rhs),rhsMax =  -6.90821285621364E-03  2.16600986263350E-01
 cg2d: Sum(rhs),rhsMax =  -6.90839365486098E-03  2.16605593575800E-01
 cg2d: Sum(rhs),rhsMax =  -6.90857330366341E-03  2.16610201614889E-01
 cg2d: Sum(rhs),rhsMax =  -6.90875181169517E-03  2.16614810384263E-01
 cg2d: Sum(rhs),rhsMax =  -6.90892918748294E-03  2.16619419887543E-01
 cg2d: Sum(rhs),rhsMax =  -6.90910544090824E-03  2.16624030128349E-01
 cg2d: Sum(rhs),rhsMax =  -6.90928058018404E-03  2.16628641110306E-01
 cg2d: Sum(rhs),rhsMax =  -6.90945461452333E-03  2.16633252837016E-01
 cg2d: Sum(rhs),rhsMax =  -6.90962755372958E-03  2.16637865312099E-01
 cg2d: Sum(rhs),rhsMax =  -6.90979940670517E-03  2.16642478539145E-01
 cg2d: Sum(rhs),rhsMax =  -6.90997018333284E-03  2.16647092521763E-01
 cg2d: Sum(rhs),rhsMax =  -6.91013989287843E-03  2.16651707263538E-01
 cg2d: Sum(rhs),rhsMax =  -6.91030854530989E-03  2.16656322768065E-01
 cg2d: Sum(rhs),rhsMax =  -6.91047615019184E-03  2.16660939038923E-01
 cg2d: Sum(rhs),rhsMax =  -6.91064271724430E-03  2.16665556079693E-01
 cg2d: Sum(rhs),rhsMax =  -6.91080825683444E-03  2.16670173893948E-01
 cg2d: Sum(rhs),rhsMax =  -6.91097277882730E-03  2.16674792485253E-01
 cg2d: Sum(rhs),rhsMax =  -6.91113629343689E-03  2.16679411857176E-01
 cg2d: Sum(rhs),rhsMax =  -6.91129881080920E-03  2.16684032013275E-01
 cg2d: Sum(rhs),rhsMax =  -6.91146034198889E-03  2.16688652957101E-01
 cg2d: Sum(rhs),rhsMax =  -6.91162089648942E-03  2.16693274692203E-01
 cg2d: Sum(rhs),rhsMax =  -6.91178048496918E-03  2.16697897222126E-01
 cg2d: Sum(rhs),rhsMax =  -6.91193911851892E-03  2.16702520550404E-01
 cg2d: Sum(rhs),rhsMax =  -6.91209680781854E-03  2.16707144680574E-01
 cg2d: Sum(rhs),rhsMax =  -6.91225356307606E-03  2.16711769616161E-01
 cg2d: Sum(rhs),rhsMax =  -6.91240939552608E-03  2.16716395360698E-01
 cg2d: Sum(rhs),rhsMax =  -6.91256431590740E-03  2.16721021917686E-01
 cg2d: Sum(rhs),rhsMax =  -6.91271833558856E-03  2.16725649290649E-01
 cg2d: Sum(rhs),rhsMax =  -6.91287146552538E-03  2.16730277483090E-01
 cg2d: Sum(rhs),rhsMax =  -6.91302371668420E-03  2.16734906498516E-01
 cg2d: Sum(rhs),rhsMax =  -6.91317510087685E-03  2.16739536340412E-01
 cg2d: Sum(rhs),rhsMax =  -6.91332562935270E-03  2.16744167012284E-01
 cg2d: Sum(rhs),rhsMax =  -6.91347531319234E-03  2.16748798517613E-01
 cg2d: Sum(rhs),rhsMax =  -6.91362416400329E-03  2.16753430859872E-01
 cg2d: Sum(rhs),rhsMax =  -6.91377219303117E-03  2.16758064042550E-01
 cg2d: Sum(rhs),rhsMax =  -6.91391941292986E-03  2.16762698069110E-01
 cg2d: Sum(rhs),rhsMax =  -6.91406583458863E-03  2.16767332943021E-01
 cg2d: Sum(rhs),rhsMax =  -6.91421147006777E-03  2.16771968667739E-01
 cg2d: Sum(rhs),rhsMax =  -6.91435633080051E-03  2.16776605246719E-01
(PID.TID 0000.0001)      cg2d_init_res =   3.93180358202349E-04
(PID.TID 0000.0001)      cg2d_iters(min,last) =      -1      70
(PID.TID 0000.0001)      cg2d_last_res =   9.56442561742003E-08
(PID.TID 0000.0001) // =======================================================
(PID.TID 0000.0001) // Begin MONITOR dynamic field statistics
(PID.TID 0000.0001) // =======================================================
(PID.TID 0000.0001) %MON time_tsnumber                =                 16200
(PID.TID 0000.0001) %MON time_secondsf                =   1.9440000000000E+07
(PID.TID 0000.0001) %MON dynstat_eta_max              =   3.4168328419854E-01
(PID.TID 0000.0001) %MON dynstat_eta_min              =  -1.0941727899960E-01
(PID.TID 0000.0001) %MON dynstat_eta_mean             =   7.4908296914430E-06
(PID.TID 0000.0001) %MON dynstat_eta_sd               =   1.3217361766304E-01
(PID.TID 0000.0001) %MON dynstat_eta_del2             =   3.4208000769304E-05
(PID.TID 0000.0001) %MON dynstat_uvel_max             =   1.6567322006507E-01
(PID.TID 0000.0001) %MON dynstat_uvel_min             =  -1.2858220171464E-01
(PID.TID 0000.0001) %MON dynstat_uvel_mean            =  -3.1824294308872E-08
(PID.TID 0000.0001) %MON dynstat_uvel_sd              =   5.4024885092407E-02
(PID.TID 0000.0001) %MON dynstat_uvel_del2            =   7.4691945865342E-05
(PID.TID 0000.0001) %MON dynstat_vvel_max             =   1.1122975319974E-01
(PID.TID 0000.0001) %MON dynstat_vvel_min             =  -1.3911511894842E-01
(PID.TID 0000.0001) %MON dynstat_vvel_mean            =   5.1579151670127E-08
(PID.TID 0000.0001) %MON dynstat_vvel_sd              =   4.9427821292062E-02
(PID.TID 0000.0001) %MON dynstat_vvel_del2            =   3.6969165833404E-05
(PID.TID 0000.0001) %MON dynstat_wvel_max             =   1.3753366149031E-08
(PID.TID 0000.0001) %MON dynstat_wvel_min             =  -4.6890645401436E-09
(PID.TID 0000.0001) %MON dynstat_wvel_mean            =   1.1565810432835E-21
(PID.TID 0000.0001) %MON dynstat_wvel_sd              =   4.7132867132714E-09
(PID.TID 0000.0001) %MON dynstat_wvel_del2            =   1.4048560464304E-12
(PID.TID 0000.0001) %MON dynstat_theta_max            =   2.0000000000000E+01
(PID.TID 0000.0001) %MON dynstat_theta_min            =   2.0000000000000E+01
(PID.TID 0000.0001) %MON dynstat_theta_mean           =   2.0000000000000E+01
(PID.TID 0000.0001) %MON dynstat_theta_sd             =   3.8014036363165E-13
(PID.TID 0000.0001) %MON dynstat_theta_del2           =   0.0000000000000E+00
(PID.TID 0000.0001) %MON dynstat_salt_max             =   3.0000000000000E+01
(PID.TID 0000.0001) %MON dynstat_salt_min             =   3.0000000000000E+01
(PID.TID 0000.0001) %MON dynstat_salt_mean            =   2.9999999999999E+01
(PID.TID 0000.0001) %MON dynstat_salt_sd              =   5.5777604757167E-13
(PID.TID 0000.0001) %MON dynstat_salt_del2            =   0.0000000000000E+00
(PID.TID 0000.0001) %MON trAdv_CFL_u_max              =   9.9393830265956E-03
(PID.TID 0000.0001) %MON trAdv_CFL_v_max              =   8.3356634171183E-03
(PID.TID 0000.0001) %MON trAdv_CFL_w_max              =   3.6416771945939E-09
(PID.TID 0000.0001) %MON advcfl_uvel_max              =   9.9403932039044E-03
(PID.TID 0000.0001) %MON advcfl_vvel_max              =   8.3469071369054E-03
(PID.TID 0000.0001) %MON advcfl_wvel_max              =   6.6016157515347E-09
(PID.TID 0000.0001) %MON advcfl_W_hf_max              =   0.0000000000000E+00
(PID.TID 0000.0001) %MON pe_b_mean                    =   1.7910711932495E-05
(PID.TID 0000.0001) %MON ke_max                       =   1.3745405512430E-02
(PID.TID 0000.0001) %MON ke_mean                      =   2.6316008435885E-03
(PID.TID 0000.0001) %MON ke_vol                       =   6.8893493896486E+15
(PID.TID 0000.0001) %MON vort_r_min                   =  -1.0113021415172E-06
(PID.TID 0000.0001) %MON vort_r_max                   =   3.5608075561794E-06
(PID.TID 0000.0001) %MON vort_a_mean                  =   1.0600000000000E-04
(PID.TID 0000.0001) %MON vort_a_sd                    =   3.5727378071036E-06
(PID.TID 0000.0001) %MON vort_p_mean                  =   1.1652272308690E-04
(PID.TID 0000.0001) %MON vort_p_sd                    =   4.1791293705492E-05
(PID.TID 0000.0001) %MON surfExpan_theta_mean         =   2.3146837533103E-20
(PID.TID 0000.0001) %MON surfExpan_salt_mean          =   3.4721223427267E-20
(PID.TID 0000.0001) // =======================================================
(PID.TID 0000.0001) // End MONITOR dynamic field statistics
(PID.TID 0000.0001) // =======================================================
 cg2d: Sum(rhs),rhsMax =  -6.91450042909099E-03  2.16781242683412E-01
 cg2d: Sum(rhs),rhsMax =  -6.91464377706425E-03  2.16785880981261E-01
 cg2d: Sum(rhs),rhsMax =  -6.91478638625698E-03  2.16790520143704E-01
 cg2d: Sum(rhs),rhsMax =  -6.91492826929877E-03  2.16795160174173E-01
 cg2d: Sum(rhs),rhsMax =  -6.91506943798500E-03  2.16799801076097E-01
 cg2d: Sum(rhs),rhsMax =  -6.91520990485240E-03  2.16804442852900E-01
 cg2d: Sum(rhs),rhsMax =  -6.91534968193454E-03  2.16809085507994E-01
 cg2d: Sum(rhs),rhsMax =  -6.91548878192373E-03  2.16813729044796E-01
 cg2d: Sum(rhs),rhsMax =  -6.91562721680156E-03  2.16818373466700E-01
 cg2d: Sum(rhs),rhsMax =  -6.91576499893133E-03  2.16823018777121E-01
 cg2d: Sum(rhs),rhsMax =  -6.91590214130827E-03  2.16827664979443E-01
 cg2d: Sum(rhs),rhsMax =  -6.91603865591526E-03  2.16832312077058E-01
 cg2d: Sum(rhs),rhsMax =  -6.91617455610406E-03  2.16836960073354E-01
 cg2d: Sum(rhs),rhsMax =  -6.91630985376940E-03  2.16841608971704E-01
 cg2d: Sum(rhs),rhsMax =  -6.91644456198032E-03  2.16846258775479E-01
 cg2d: Sum(rhs),rhsMax =  -6.91657869342887E-03  2.16850909488051E-01
 cg2d: Sum(rhs),rhsMax =  -6.91671226029123E-03  2.16855561112770E-01
 cg2d: Sum(rhs),rhsMax =  -6.91684527626289E-03  2.16860213653002E-01
 cg2d: Sum(rhs),rhsMax =  -6.91697775337805E-03  2.16864867112099E-01
 cg2d: Sum(rhs),rhsMax =  -6.91710970495709E-03  2.16869521493394E-01
 cg2d: Sum(rhs),rhsMax =  -6.91724114410169E-03  2.16874176800233E-01
 cg2d: Sum(rhs),rhsMax =  -6.91737208329605E-03  2.16878833035949E-01
 cg2d: Sum(rhs),rhsMax =  -6.91750253539828E-03  2.16883490203862E-01
 cg2d: Sum(rhs),rhsMax =  -6.91763251367603E-03  2.16888148307302E-01
 cg2d: Sum(rhs),rhsMax =  -6.91776203124240E-03  2.16892807349575E-01
 cg2d: Sum(rhs),rhsMax =  -6.91789110136933E-03  2.16897467334002E-01
 cg2d: Sum(rhs),rhsMax =  -6.91801973624066E-03  2.16902128263875E-01
 cg2d: Sum(rhs),rhsMax =  -6.91814795026148E-03  2.16906790142501E-01
 cg2d: Sum(rhs),rhsMax =  -6.91827575565677E-03  2.16911452973167E-01
 cg2d: Sum(rhs),rhsMax =  -6.91840316559466E-03  2.16916116759158E-01
 cg2d: Sum(rhs),rhsMax =  -6.91853019344954E-03  2.16920781503762E-01
 cg2d: Sum(rhs),rhsMax =  -6.91865685220171E-03  2.16925447210252E-01
 cg2d: Sum(rhs),rhsMax =  -6.91878315505918E-03  2.16930113881891E-01
 cg2d: Sum(rhs),rhsMax =  -6.91890911506825E-03  2.16934781521944E-01
 cg2d: Sum(rhs),rhsMax =  -6.91903474608994E-03  2.16939450133670E-01
 cg2d: Sum(rhs),rhsMax =  -6.91916006055157E-03  2.16944119720318E-01
 cg2d: Sum(rhs),rhsMax =  -6.91928507186277E-03  2.16948790285135E-01
 cg2d: Sum(rhs),rhsMax =  -6.91940979321150E-03  2.16953461831360E-01
 cg2d: Sum(rhs),rhsMax =  -6.91953423808641E-03  2.16958134362224E-01
 cg2d: Sum(rhs),rhsMax =  -6.91965841978999E-03  2.16962807880955E-01
 cg2d: Sum(rhs),rhsMax =  -6.91978235107616E-03  2.16967482390778E-01
 cg2d: Sum(rhs),rhsMax =  -6.91990604542106E-03  2.16972157894903E-01
 cg2d: Sum(rhs),rhsMax =  -6.92002951580042E-03  2.16976834396539E-01
 cg2d: Sum(rhs),rhsMax =  -6.92015277544845E-03  2.16981511898893E-01
 cg2d: Sum(rhs),rhsMax =  -6.92027583802280E-03  2.16986190405160E-01
 cg2d: Sum(rhs),rhsMax =  -6.92039871581337E-03  2.16990869918530E-01
 cg2d: Sum(rhs),rhsMax =  -6.92052142297065E-03  2.16995550442189E-01
 cg2d: Sum(rhs),rhsMax =  -6.92064397226781E-03  2.17000231979318E-01
 cg2d: Sum(rhs),rhsMax =  -6.92076637700967E-03  2.17004914533082E-01
 cg2d: Sum(rhs),rhsMax =  -6.92088864987016E-03  2.17009598106656E-01
 cg2d: Sum(rhs),rhsMax =  -6.92101080433725E-03  2.17014282703199E-01
 cg2d: Sum(rhs),rhsMax =  -6.92113285306131E-03  2.17018968325858E-01
 cg2d: Sum(rhs),rhsMax =  -6.92125480968919E-03  2.17023654977789E-01
 cg2d: Sum(rhs),rhsMax =  -6.92137668697740E-03  2.17028342662125E-01
 cg2d: Sum(rhs),rhsMax =  -6.92149849790518E-03  2.17033031382010E-01
 cg2d: Sum(rhs),rhsMax =  -6.92162025549620E-03  2.17037721140572E-01
 cg2d: Sum(rhs),rhsMax =  -6.92174197276429E-03  2.17042411940933E-01
 cg2d: Sum(rhs),rhsMax =  -6.92186366289777E-03  2.17047103786207E-01
 cg2d: Sum(rhs),rhsMax =  -6.92198533805888E-03  2.17051796679504E-01
 cg2d: Sum(rhs),rhsMax =  -6.92210701151788E-03  2.17056490623932E-01
 cg2d: Sum(rhs),rhsMax =  -6.92222869626938E-03  2.17061185622587E-01
 cg2d: Sum(rhs),rhsMax =  -6.92235040545335E-03  2.17065881678568E-01
 cg2d: Sum(rhs),rhsMax =  -6.92247215108368E-03  2.17070578794940E-01
 cg2d: Sum(rhs),rhsMax =  -6.92259394609980E-03  2.17075276974805E-01
 cg2d: Sum(rhs),rhsMax =  -6.92271580347293E-03  2.17079976221219E-01
 cg2d: Sum(rhs),rhsMax =  -6.92283773588641E-03  2.17084676537258E-01
 cg2d: Sum(rhs),rhsMax =  -6.92295975546519E-03  2.17089377925979E-01
 cg2d: Sum(rhs),rhsMax =  -6.92308187505162E-03  2.17094080390432E-01
 cg2d: Sum(rhs),rhsMax =  -6.92320410744845E-03  2.17098783933669E-01
 cg2d: Sum(rhs),rhsMax =  -6.92332646446260E-03  2.17103488558724E-01
 cg2d: Sum(rhs),rhsMax =  -6.92344895860953E-03  2.17108194268634E-01
 cg2d: Sum(rhs),rhsMax =  -6.92357160274706E-03  2.17112901066433E-01
(PID.TID 0000.0001)      cg2d_init_res =   3.90921204419649E-04
(PID.TID 0000.0001)      cg2d_iters(min,last) =      -1      70
(PID.TID 0000.0001)      cg2d_last_res =   9.50544767134268E-08
(PID.TID 0000.0001) // =======================================================
(PID.TID 0000.0001) // Begin MONITOR dynamic field statistics
(PID.TID 0000.0001) // =======================================================
(PID.TID 0000.0001) %MON time_tsnumber                =                 16272
(PID.TID 0000.0001) %MON time_secondsf                =   1.9526400000000E+07
(PID.TID 0000.0001) %MON dynstat_eta_max              =   3.4281720064554E-01
(PID.TID 0000.0001) %MON dynstat_eta_min              =  -1.0976647763786E-01
(PID.TID 0000.0001) %MON dynstat_eta_mean             =   7.5124285162337E-06
(PID.TID 0000.0001) %MON dynstat_eta_sd               =   1.3256133398584E-01
(PID.TID 0000.0001) %MON dynstat_eta_del2             =   3.4281826316195E-05
(PID.TID 0000.0001) %MON dynstat_uvel_max             =   1.6594201697498E-01
(PID.TID 0000.0001) %MON dynstat_uvel_min             =  -1.2889985484441E-01
(PID.TID 0000.0001) %MON dynstat_uvel_mean            =  -4.2109033974979E-08
(PID.TID 0000.0001) %MON dynstat_uvel_sd              =   5.4163067853170E-02
(PID.TID 0000.0001) %MON dynstat_uvel_del2            =   7.4743110965613E-05
(PID.TID 0000.0001) %MON dynstat_vvel_max             =   1.1168116267272E-01
(PID.TID 0000.0001) %MON dynstat_vvel_min             =  -1.3955950449217E-01
(PID.TID 0000.0001) %MON dynstat_vvel_mean            =   5.4548422675193E-08
(PID.TID 0000.0001) %MON dynstat_vvel_sd              =   4.9588966595863E-02
(PID.TID 0000.0001) %MON dynstat_vvel_del2            =   3.6942760516525E-05
(PID.TID 0000.0001) %MON dynstat_wvel_max             =   1.3770344038494E-08
(PID.TID 0000.0001) %MON dynstat_wvel_min             =  -4.8466407397063E-09
(PID.TID 0000.0001) %MON dynstat_wvel_mean            =   1.4271303901599E-20
(PID.TID 0000.0001) %MON dynstat_wvel_sd              =   4.7033862389223E-09
(PID.TID 0000.0001) %MON dynstat_wvel_del2            =   1.3957950264538E-12
(PID.TID 0000.0001) %MON dynstat_theta_max            =   2.0000000000000E+01
(PID.TID 0000.0001) %MON dynstat_theta_min            =   2.0000000000000E+01
(PID.TID 0000.0001) %MON dynstat_theta_mean           =   2.0000000000000E+01
(PID.TID 0000.0001) %MON dynstat_theta_sd             =   3.8014036363165E-13
(PID.TID 0000.0001) %MON dynstat_theta_del2           =   0.0000000000000E+00
(PID.TID 0000.0001) %MON dynstat_salt_max             =   3.0000000000000E+01
(PID.TID 0000.0001) %MON dynstat_salt_min             =   3.0000000000000E+01
(PID.TID 0000.0001) %MON dynstat_salt_mean            =   2.9999999999999E+01
(PID.TID 0000.0001) %MON dynstat_salt_sd              =   5.5777604757167E-13
(PID.TID 0000.0001) %MON dynstat_salt_del2            =   0.0000000000000E+00
(PID.TID 0000.0001) %MON trAdv_CFL_u_max              =   9.9555107112333E-03
(PID.TID 0000.0001) %MON trAdv_CFL_v_max              =   8.3623014581475E-03
(PID.TID 0000.0001) %MON trAdv_CFL_w_max              =   3.6424834467095E-09
(PID.TID 0000.0001) %MON advcfl_uvel_max              =   9.9565210184986E-03
(PID.TID 0000.0001) %MON advcfl_vvel_max              =   8.3735702695301E-03
(PID.TID 0000.0001) %MON advcfl_wvel_max              =   6.6097651384771E-09
(PID.TID 0000.0001) %MON advcfl_W_hf_max              =   0.0000000000000E+00
(PID.TID 0000.0001) %MON pe_b_mean                    =   1.8015944135625E-05
(PID.TID 0000.0001) %MON ke_max                       =   1.3790741935532E-02
(PID.TID 0000.0001) %MON ke_mean                      =   2.6467695863330E-03
(PID.TID 0000.0001) %MON ke_vol                       =   6.8893493896486E+15
(PID.TID 0000.0001) %MON vort_r_min                   =  -1.0143794989096E-06
(PID.TID 0000.0001) %MON vort_r_max                   =   3.5663702871194E-06
(PID.TID 0000.0001) %MON vort_a_mean                  =   1.0600000000000E-04
(PID.TID 0000.0001) %MON vort_a_sd                    =   3.5729384933490E-06
(PID.TID 0000.0001) %MON vort_p_mean                  =   1.1652272308690E-04
(PID.TID 0000.0001) %MON vort_p_sd                    =   4.1791362319859E-05
(PID.TID 0000.0001) %MON surfExpan_theta_mean         =   2.8547143661307E-19
(PID.TID 0000.0001) %MON surfExpan_salt_mean          =   4.2820067985221E-19
(PID.TID 0000.0001) // =======================================================
(PID.TID 0000.0001) // End MONITOR dynamic field statistics
(PID.TID 0000.0001) // =======================================================
 cg2d: Sum(rhs),rhsMax =  -6.92369440864508E-03  2.17117608955131E-01
 cg2d: Sum(rhs),rhsMax =  -6.92381738910190E-03  2.17122317937752E-01
 cg2d: Sum(rhs),rhsMax =  -6.92394055571634E-03  2.17127028017296E-01
 cg2d: Sum(rhs),rhsMax =  -6.92406392129042E-03  2.17131739196768E-01
 cg2d: Sum(rhs),rhsMax =  -6.92418749714518E-03  2.17136451479163E-01
 cg2d: Sum(rhs),rhsMax =  -6.92431129558441E-03  2.17141164867471E-01
 cg2d: Sum(rhs),rhsMax =  -6.92443532867191E-03  2.17145879364675E-01
 cg2d: Sum(rhs),rhsMax =  -6.92455960838815E-03  2.17150594973741E-01
 cg2d: Sum(rhs),rhsMax =  -6.92468414668321E-03  2.17155311697649E-01
 cg2d: Sum(rhs),rhsMax =  -6.92480895474015E-03  2.17160029539353E-01
 cg2d: Sum(rhs),rhsMax =  -6.92493404485165E-03  2.17164748501808E-01
 cg2d: Sum(rhs),rhsMax =  -6.92505942869941E-03  2.17169468587975E-01
 cg2d: Sum(rhs),rhsMax =  -6.92518511723295E-03  2.17174189800780E-01
 cg2d: Sum(rhs),rhsMax =  -6.92531112270684E-03  2.17178912143167E-01
 cg2d: Sum(rhs),rhsMax =  -6.92543745575677E-03  2.17183635618066E-01
 cg2d: Sum(rhs),rhsMax =  -6.92556412852397E-03  2.17188360228390E-01
 cg2d: Sum(rhs),rhsMax =  -6.92569115189519E-03  2.17193085977065E-01
 cg2d: Sum(rhs),rhsMax =  -6.92581853663188E-03  2.17197812866997E-01
 cg2d: Sum(rhs),rhsMax =  -6.92594629462378E-03  2.17202540901083E-01
 cg2d: Sum(rhs),rhsMax =  -6.92607443693039E-03  2.17207270082221E-01
 cg2d: Sum(rhs),rhsMax =  -6.92620297400521E-03  2.17212000413299E-01
 cg2d: Sum(rhs),rhsMax =  -6.92633191721614E-03  2.17216731897196E-01
 cg2d: Sum(rhs),rhsMax =  -6.92646127737146E-03  2.17221464536791E-01
 cg2d: Sum(rhs),rhsMax =  -6.92659106489739E-03  2.17226198334954E-01
 cg2d: Sum(rhs),rhsMax =  -6.92672129075642E-03  2.17230933294542E-01
 cg2d: Sum(rhs),rhsMax =  -6.92685196549836E-03  2.17235669418404E-01
 cg2d: Sum(rhs),rhsMax =  -6.92698309953941E-03  2.17240406709397E-01
 cg2d: Sum(rhs),rhsMax =  -6.92711470301720E-03  2.17245145170356E-01
 cg2d: Sum(rhs),rhsMax =  -6.92724678696114E-03  2.17249884804120E-01
 cg2d: Sum(rhs),rhsMax =  -6.92737936121113E-03  2.17254625613505E-01
 cg2d: Sum(rhs),rhsMax =  -6.92751243589232E-03  2.17259367601341E-01
 cg2d: Sum(rhs),rhsMax =  -6.92764602141894E-03  2.17264110770440E-01
 cg2d: Sum(rhs),rhsMax =  -6.92778012762785E-03  2.17268855123604E-01
 cg2d: Sum(rhs),rhsMax =  -6.92791476406840E-03  2.17273600663634E-01
 cg2d: Sum(rhs),rhsMax =  -6.92804994125295E-03  2.17278347393319E-01
 cg2d: Sum(rhs),rhsMax =  -6.92818566823973E-03  2.17283095315448E-01
 cg2d: Sum(rhs),rhsMax =  -6.92832195510884E-03  2.17287844432799E-01
 cg2d: Sum(rhs),rhsMax =  -6.92845881108184E-03  2.17292594748143E-01
 cg2d: Sum(rhs),rhsMax =  -6.92859624604673E-03  2.17297346264242E-01
 cg2d: Sum(rhs),rhsMax =  -6.92873426920842E-03  2.17302098983853E-01
 cg2d: Sum(rhs),rhsMax =  -6.92887288980019E-03  2.17306852909725E-01
 cg2d: Sum(rhs),rhsMax =  -6.92901211685724E-03  2.17311608044606E-01
 cg2d: Sum(rhs),rhsMax =  -6.92915195941780E-03  2.17316364391228E-01
 cg2d: Sum(rhs),rhsMax =  -6.92929242717971E-03  2.17321121952320E-01
 cg2d: Sum(rhs),rhsMax =  -6.92943352834495E-03  2.17325880730604E-01
 cg2d: Sum(rhs),rhsMax =  -6.92957527175013E-03  2.17330640728798E-01
 cg2d: Sum(rhs),rhsMax =  -6.92971766624656E-03  2.17335401949603E-01
 cg2d: Sum(rhs),rhsMax =  -6.92986072057065E-03  2.17340164395724E-01
 cg2d: Sum(rhs),rhsMax =  -6.93000444299443E-03  2.17344928069854E-01
 cg2d: Sum(rhs),rhsMax =  -6.93014884205134E-03  2.17349692974676E-01
 cg2d: Sum(rhs),rhsMax =  -6.93029392600729E-03  2.17354459112871E-01
 cg2d: Sum(rhs),rhsMax =  -6.93043970329639E-03  2.17359226487111E-01
 cg2d: Sum(rhs),rhsMax =  -6.93058618169197E-03  2.17363995100058E-01
 cg2d: Sum(rhs),rhsMax =  -6.93073336974336E-03  2.17368764954373E-01
 cg2d: Sum(rhs),rhsMax =  -6.93088127526216E-03  2.17373536052704E-01
 cg2d: Sum(rhs),rhsMax =  -6.93102990543702E-03  2.17378308397692E-01
 cg2d: Sum(rhs),rhsMax =  -6.93117926881051E-03  2.17383081991974E-01
 cg2d: Sum(rhs),rhsMax =  -6.93132937256787E-03  2.17387856838183E-01
 cg2d: Sum(rhs),rhsMax =  -6.93148022412152E-03  2.17392632938931E-01
 cg2d: Sum(rhs),rhsMax =  -6.93163183098814E-03  2.17397410296838E-01
 cg2d: Sum(rhs),rhsMax =  -6.93178420095537E-03  2.17402188914507E-01
 cg2d: Sum(rhs),rhsMax =  -6.93193734108220E-03  2.17406968794537E-01
 cg2d: Sum(rhs),rhsMax =  -6.93209125801818E-03  2.17411749939528E-01
 cg2d: Sum(rhs),rhsMax =  -6.93224595902686E-03  2.17416532352052E-01
 cg2d: Sum(rhs),rhsMax =  -6.93240145115260E-03  2.17421316034695E-01
 cg2d: Sum(rhs),rhsMax =  -6.93255774131482E-03  2.17426100990019E-01
 cg2d: Sum(rhs),rhsMax =  -6.93271483628632E-03  2.17430887220595E-01
 cg2d: Sum(rhs),rhsMax =  -6.93287274243600E-03  2.17435674728967E-01
 cg2d: Sum(rhs),rhsMax =  -6.93303146640324E-03  2.17440463517699E-01
 cg2d: Sum(rhs),rhsMax =  -6.93319101438731E-03  2.17445253589313E-01
 cg2d: Sum(rhs),rhsMax =  -6.93335139267765E-03  2.17450044946354E-01
 cg2d: Sum(rhs),rhsMax =  -6.93351260806066E-03  2.17454837591342E-01
(PID.TID 0000.0001)      cg2d_init_res =   3.88540889844653E-04
(PID.TID 0000.0001)      cg2d_iters(min,last) =      -1      70
(PID.TID 0000.0001)      cg2d_last_res =   9.60523847708860E-08
(PID.TID 0000.0001) // =======================================================
(PID.TID 0000.0001) // Begin MONITOR dynamic field statistics
(PID.TID 0000.0001) // =======================================================
(PID.TID 0000.0001) %MON time_tsnumber                =                 16344
(PID.TID 0000.0001) %MON time_secondsf                =   1.9612800000000E+07
(PID.TID 0000.0001) %MON dynstat_eta_max              =   3.4394764142461E-01
(PID.TID 0000.0001) %MON dynstat_eta_min              =  -1.1011086929244E-01
(PID.TID 0000.0001) %MON dynstat_eta_mean             =   7.5351087032178E-06
(PID.TID 0000.0001) %MON dynstat_eta_sd               =   1.3294889256998E-01
(PID.TID 0000.0001) %MON dynstat_eta_del2             =   3.4355608340869E-05
(PID.TID 0000.0001) %MON dynstat_uvel_max             =   1.6621007997498E-01
(PID.TID 0000.0001) %MON dynstat_uvel_min             =  -1.2922125808974E-01
(PID.TID 0000.0001) %MON dynstat_uvel_mean            =  -5.1438014032428E-08
(PID.TID 0000.0001) %MON dynstat_uvel_sd              =   5.4301676412750E-02
(PID.TID 0000.0001) %MON dynstat_uvel_del2            =   7.4793511758477E-05
(PID.TID 0000.0001) %MON dynstat_vvel_max             =   1.1213437695078E-01
(PID.TID 0000.0001) %MON dynstat_vvel_min             =  -1.3999205641319E-01
(PID.TID 0000.0001) %MON dynstat_vvel_mean            =   5.8769745848768E-08
(PID.TID 0000.0001) %MON dynstat_vvel_sd              =   4.9749373567464E-02
(PID.TID 0000.0001) %MON dynstat_vvel_del2            =   3.6922948391031E-05
(PID.TID 0000.0001) %MON dynstat_wvel_max             =   1.3773552188650E-08
(PID.TID 0000.0001) %MON dynstat_wvel_min             =  -4.9582743406063E-09
(PID.TID 0000.0001) %MON dynstat_wvel_mean            =  -4.6307908026696E-22
(PID.TID 0000.0001) %MON dynstat_wvel_sd              =   4.6939402417788E-09
(PID.TID 0000.0001) %MON dynstat_wvel_del2            =   1.3862602565214E-12
(PID.TID 0000.0001) %MON dynstat_theta_max            =   2.0000000000000E+01
(PID.TID 0000.0001) %MON dynstat_theta_min            =   2.0000000000000E+01
(PID.TID 0000.0001) %MON dynstat_theta_mean           =   2.0000000000000E+01
(PID.TID 0000.0001) %MON dynstat_theta_sd             =   3.8014036363165E-13
(PID.TID 0000.0001) %MON dynstat_theta_del2           =   0.0000000000000E+00
(PID.TID 0000.0001) %MON dynstat_salt_max             =   3.0000000000000E+01
(PID.TID 0000.0001) %MON dynstat_salt_min             =   3.0000000000000E+01
(PID.TID 0000.0001) %MON dynstat_salt_mean            =   2.9999999999999E+01
(PID.TID 0000.0001) %MON dynstat_salt_sd              =   5.5777604757167E-13
(PID.TID 0000.0001) %MON dynstat_salt_del2            =   0.0000000000000E+00
(PID.TID 0000.0001) %MON trAdv_CFL_u_max              =   9.9715933158725E-03
(PID.TID 0000.0001) %MON trAdv_CFL_v_max              =   8.3882307952967E-03
(PID.TID 0000.0001) %MON trAdv_CFL_w_max              =   3.6433857003177E-09
(PID.TID 0000.0001) %MON advcfl_uvel_max              =   9.9726047984986E-03
(PID.TID 0000.0001) %MON advcfl_vvel_max              =   8.3995233847913E-03
(PID.TID 0000.0001) %MON advcfl_wvel_max              =   6.6113050505519E-09
(PID.TID 0000.0001) %MON advcfl_W_hf_max              =   0.0000000000000E+00
(PID.TID 0000.0001) %MON pe_b_mean                    =   1.8121441572632E-05
(PID.TID 0000.0001) %MON ke_max                       =   1.3835962535757E-02
(PID.TID 0000.0001) %MON ke_mean                      =   2.6619692026660E-03
(PID.TID 0000.0001) %MON ke_vol                       =   6.8893493896486E+15
(PID.TID 0000.0001) %MON vort_r_min                   =  -1.0173989726937E-06
(PID.TID 0000.0001) %MON vort_r_max                   =   3.5718900976673E-06
(PID.TID 0000.0001) %MON vort_a_mean                  =   1.0600000000000E-04
(PID.TID 0000.0001) %MON vort_a_sd                    =   3.5731416809950E-06
(PID.TID 0000.0001) %MON vort_p_mean                  =   1.1652272308690E-04
(PID.TID 0000.0001) %MON vort_p_sd                    =   4.1791432122089E-05
(PID.TID 0000.0001) %MON surfExpan_theta_mean         =  -9.2481084518820E-21
(PID.TID 0000.0001) %MON surfExpan_salt_mean          =  -1.3869162608494E-20
(PID.TID 0000.0001) // =======================================================
(PID.TID 0000.0001) // End MONITOR dynamic field statistics
(PID.TID 0000.0001) // =======================================================
 cg2d: Sum(rhs),rhsMax =  -6.93367466607411E-03  2.17459631526794E-01
 cg2d: Sum(rhs),rhsMax =  -6.93383757277395E-03  2.17464426755222E-01
 cg2d: Sum(rhs),rhsMax =  -6.93400133476531E-03  2.17469223279130E-01
 cg2d: Sum(rhs),rhsMax =  -6.93416595654971E-03  2.17474021101006E-01
 cg2d: Sum(rhs),rhsMax =  -6.93433144530376E-03  2.17478820223350E-01
 cg2d: Sum(rhs),rhsMax =  -6.93449780575465E-03  2.17483620648634E-01
 cg2d: Sum(rhs),rhsMax =  -6.93466504346668E-03  2.17488422379334E-01
 cg2d: Sum(rhs),rhsMax =  -6.93483316437509E-03  2.17493225417914E-01
 cg2d: Sum(rhs),rhsMax =  -6.93500217327327E-03  2.17498029766829E-01
 cg2d: Sum(rhs),rhsMax =  -6.93517207535971E-03  2.17502835428535E-01
 cg2d: Sum(rhs),rhsMax =  -6.93534287613039E-03  2.17507642405466E-01
 cg2d: Sum(rhs),rhsMax =  -6.93551458028595E-03  2.17512450700067E-01
 cg2d: Sum(rhs),rhsMax =  -6.93568719275419E-03  2.17517260314757E-01
 cg2d: Sum(rhs),rhsMax =  -6.93586071847399E-03  2.17522071251961E-01
 cg2d: Sum(rhs),rhsMax =  -6.93603516196159E-03  2.17526883514088E-01
 cg2d: Sum(rhs),rhsMax =  -6.93621052789678E-03  2.17531697103545E-01
 cg2d: Sum(rhs),rhsMax =  -6.93638682094416E-03  2.17536512022725E-01
 cg2d: Sum(rhs),rhsMax =  -6.93656404552495E-03  2.17541328274019E-01
 cg2d: Sum(rhs),rhsMax =  -6.93674220565483E-03  2.17546145859809E-01
 cg2d: Sum(rhs),rhsMax =  -6.93692130539074E-03  2.17550964782467E-01
 cg2d: Sum(rhs),rhsMax =  -6.93710134946343E-03  2.17555785044367E-01
 cg2d: Sum(rhs),rhsMax =  -6.93728234125757E-03  2.17560606647855E-01
 cg2d: Sum(rhs),rhsMax =  -6.93746428514750E-03  2.17565429595290E-01
 cg2d: Sum(rhs),rhsMax =  -6.93764718493898E-03  2.17570253889015E-01
 cg2d: Sum(rhs),rhsMax =  -6.93783104446472E-03  2.17575079531357E-01
 cg2d: Sum(rhs),rhsMax =  -6.93801586683643E-03  2.17579906524652E-01
 cg2d: Sum(rhs),rhsMax =  -6.93820165578770E-03  2.17584734871218E-01
 cg2d: Sum(rhs),rhsMax =  -6.93838841484328E-03  2.17589564573364E-01
 cg2d: Sum(rhs),rhsMax =  -6.93857614736199E-03  2.17594395633398E-01
 cg2d: Sum(rhs),rhsMax =  -6.93876485657948E-03  2.17599228053611E-01
 cg2d: Sum(rhs),rhsMax =  -6.93895454562493E-03  2.17604061836297E-01
 cg2d: Sum(rhs),rhsMax =  -6.93914521758700E-03  2.17608896983733E-01
 cg2d: Sum(rhs),rhsMax =  -6.93933687525035E-03  2.17613733498195E-01
 cg2d: Sum(rhs),rhsMax =  -6.93952952182554E-03  2.17618571381941E-01
 cg2d: Sum(rhs),rhsMax =  -6.93972315988925E-03  2.17623410637234E-01
 cg2d: Sum(rhs),rhsMax =  -6.93991779215247E-03  2.17628251266327E-01
 cg2d: Sum(rhs),rhsMax =  -6.94011342112522E-03  2.17633093271457E-01
 cg2d: Sum(rhs),rhsMax =  -6.94031004935908E-03  2.17637936654856E-01
 cg2d: Sum(rhs),rhsMax =  -6.94050767927490E-03  2.17642781418748E-01
 cg2d: Sum(rhs),rhsMax =  -6.94070631294434E-03  2.17647627565356E-01
 cg2d: Sum(rhs),rhsMax =  -6.94090595322645E-03  2.17652475096886E-01
 cg2d: Sum(rhs),rhsMax =  -6.94110660176133E-03  2.17657324015542E-01
 cg2d: Sum(rhs),rhsMax =  -6.94130826072663E-03  2.17662174323519E-01
 cg2d: Sum(rhs),rhsMax =  -6.94151093205190E-03  2.17667026022995E-01
 cg2d: Sum(rhs),rhsMax =  -6.94171461741666E-03  2.17671879116158E-01
 cg2d: Sum(rhs),rhsMax =  -6.94191931908208E-03  2.17676733605172E-01
 cg2d: Sum(rhs),rhsMax =  -6.94212503836093E-03  2.17681589492206E-01
 cg2d: Sum(rhs),rhsMax =  -6.94233177673734E-03  2.17686446779405E-01
 cg2d: Sum(rhs),rhsMax =  -6.94253953630513E-03  2.17691305468919E-01
 cg2d: Sum(rhs),rhsMax =  -6.94274831766374E-03  2.17696165562885E-01
 cg2d: Sum(rhs),rhsMax =  -6.94295812267538E-03  2.17701027063437E-01
 cg2d: Sum(rhs),rhsMax =  -6.94316895278263E-03  2.17705889972691E-01
 cg2d: Sum(rhs),rhsMax =  -6.94338080909105E-03  2.17710754292763E-01
 cg2d: Sum(rhs),rhsMax =  -6.94359369222701E-03  2.17715620025763E-01
 cg2d: Sum(rhs),rhsMax =  -6.94380760361803E-03  2.17720487173781E-01
 cg2d: Sum(rhs),rhsMax =  -6.94402254421331E-03  2.17725355738911E-01
 cg2d: Sum(rhs),rhsMax =  -6.94423851447898E-03  2.17730225723238E-01
 cg2d: Sum(rhs),rhsMax =  -6.94445551604094E-03  2.17735097128824E-01
 cg2d: Sum(rhs),rhsMax =  -6.94467354875593E-03  2.17739969957754E-01
 cg2d: Sum(rhs),rhsMax =  -6.94489261348721E-03  2.17744844212060E-01
 cg2d: Sum(rhs),rhsMax =  -6.94511271046323E-03  2.17749719893813E-01
 cg2d: Sum(rhs),rhsMax =  -6.94533384075698E-03  2.17754597005043E-01
 cg2d: Sum(rhs),rhsMax =  -6.94555600445897E-03  2.17759475547785E-01
 cg2d: Sum(rhs),rhsMax =  -6.94577920165446E-03  2.17764355524063E-01
 cg2d: Sum(rhs),rhsMax =  -6.94600343291941E-03  2.17769236935894E-01
 cg2d: Sum(rhs),rhsMax =  -6.94622869797868E-03  2.17774119785287E-01
 cg2d: Sum(rhs),rhsMax =  -6.94645499735074E-03  2.17779004074243E-01
 cg2d: Sum(rhs),rhsMax =  -6.94668233048841E-03  2.17783889804749E-01
 cg2d: Sum(rhs),rhsMax =  -6.94691069774713E-03  2.17788776978796E-01
 cg2d: Sum(rhs),rhsMax =  -6.94714009927085E-03  2.17793665598349E-01
 cg2d: Sum(rhs),rhsMax =  -6.94737053376143E-03  2.17798555665389E-01
 cg2d: Sum(rhs),rhsMax =  -6.94760200175693E-03  2.17803447181860E-01
(PID.TID 0000.0001)      cg2d_init_res =   3.86131121829744E-04
(PID.TID 0000.0001)      cg2d_iters(min,last) =      -1      70
(PID.TID 0000.0001)      cg2d_last_res =   9.75290210202661E-08
(PID.TID 0000.0001) // =======================================================
(PID.TID 0000.0001) // Begin MONITOR dynamic field statistics
(PID.TID 0000.0001) // =======================================================
(PID.TID 0000.0001) %MON time_tsnumber                =                 16416
(PID.TID 0000.0001) %MON time_secondsf                =   1.9699200000000E+07
(PID.TID 0000.0001) %MON dynstat_eta_max              =   3.4507456951755E-01
(PID.TID 0000.0001) %MON dynstat_eta_min              =  -1.1044870159720E-01
(PID.TID 0000.0001) %MON dynstat_eta_mean             =   7.5626044206382E-06
(PID.TID 0000.0001) %MON dynstat_eta_sd               =   1.3333619343831E-01
(PID.TID 0000.0001) %MON dynstat_eta_del2             =   3.4429389133347E-05
(PID.TID 0000.0001) %MON dynstat_uvel_max             =   1.6647865386800E-01
(PID.TID 0000.0001) %MON dynstat_uvel_min             =  -1.2954910040923E-01
(PID.TID 0000.0001) %MON dynstat_uvel_mean            =  -5.9497148915897E-08
(PID.TID 0000.0001) %MON dynstat_uvel_sd              =   5.4441165287758E-02
(PID.TID 0000.0001) %MON dynstat_uvel_del2            =   7.4843581710463E-05
(PID.TID 0000.0001) %MON dynstat_vvel_max             =   1.1258815146850E-01
(PID.TID 0000.0001) %MON dynstat_vvel_min             =  -1.4041247543809E-01
(PID.TID 0000.0001) %MON dynstat_vvel_mean            =   6.4089981962512E-08
(PID.TID 0000.0001) %MON dynstat_vvel_sd              =   4.9908467024319E-02
(PID.TID 0000.0001) %MON dynstat_vvel_del2            =   3.6909559871524E-05
(PID.TID 0000.0001) %MON dynstat_wvel_max             =   1.3761409240542E-08
(PID.TID 0000.0001) %MON dynstat_wvel_min             =  -5.0726058788132E-09
(PID.TID 0000.0001) %MON dynstat_wvel_mean            =  -4.9780257743098E-21
(PID.TID 0000.0001) %MON dynstat_wvel_sd              =   4.6844365887758E-09
(PID.TID 0000.0001) %MON dynstat_wvel_del2            =   1.3762554126993E-12
(PID.TID 0000.0001) %MON dynstat_theta_max            =   2.0000000000000E+01
(PID.TID 0000.0001) %MON dynstat_theta_min            =   2.0000000000000E+01
(PID.TID 0000.0001) %MON dynstat_theta_mean           =   2.0000000000000E+01
(PID.TID 0000.0001) %MON dynstat_theta_sd             =   3.8014036363165E-13
(PID.TID 0000.0001) %MON dynstat_theta_del2           =   0.0000000000000E+00
(PID.TID 0000.0001) %MON dynstat_salt_max             =   3.0000000000000E+01
(PID.TID 0000.0001) %MON dynstat_salt_min             =   3.0000000000000E+01
(PID.TID 0000.0001) %MON dynstat_salt_mean            =   2.9999999999999E+01
(PID.TID 0000.0001) %MON dynstat_salt_sd              =   5.5777604757167E-13
(PID.TID 0000.0001) %MON dynstat_salt_del2            =   0.0000000000000E+00
(PID.TID 0000.0001) %MON trAdv_CFL_u_max              =   9.9877055495551E-03
(PID.TID 0000.0001) %MON trAdv_CFL_v_max              =   8.4134332210292E-03
(PID.TID 0000.0001) %MON trAdv_CFL_w_max              =   3.6402325131008E-09
(PID.TID 0000.0001) %MON advcfl_uvel_max              =   9.9887192320799E-03
(PID.TID 0000.0001) %MON advcfl_vvel_max              =   8.4247485262855E-03
(PID.TID 0000.0001) %MON advcfl_wvel_max              =   6.6054764354602E-09
(PID.TID 0000.0001) %MON advcfl_W_hf_max              =   0.0000000000000E+00
(PID.TID 0000.0001) %MON pe_b_mean                    =   1.8227176533584E-05
(PID.TID 0000.0001) %MON ke_max                       =   1.3881270469391E-02
(PID.TID 0000.0001) %MON ke_mean                      =   2.6771956281504E-03
(PID.TID 0000.0001) %MON ke_vol                       =   6.8893493896486E+15
(PID.TID 0000.0001) %MON vort_r_min                   =  -1.0203619860335E-06
(PID.TID 0000.0001) %MON vort_r_max                   =   3.5773919683618E-06
(PID.TID 0000.0001) %MON vort_a_mean                  =   1.0600000000000E-04
(PID.TID 0000.0001) %MON vort_a_sd                    =   3.5733475382265E-06
(PID.TID 0000.0001) %MON vort_p_mean                  =   1.1652272308690E-04
(PID.TID 0000.0001) %MON vort_p_sd                    =   4.1791503341720E-05
(PID.TID 0000.0001) %MON surfExpan_theta_mean         =  -9.9536615986532E-20
(PID.TID 0000.0001) %MON surfExpan_salt_mean          =  -1.4931060832168E-19
(PID.TID 0000.0001) // =======================================================
(PID.TID 0000.0001) // End MONITOR dynamic field statistics
(PID.TID 0000.0001) // =======================================================
 cg2d: Sum(rhs),rhsMax =  -6.94783450284262E-03  2.17808340149723E-01
 cg2d: Sum(rhs),rhsMax =  -6.94806803654548E-03  2.17813234570918E-01
 cg2d: Sum(rhs),rhsMax =  -6.94830260211062E-03  2.17818130447378E-01
 cg2d: Sum(rhs),rhsMax =  -6.94853819904802E-03  2.17823027781032E-01
 cg2d: Sum(rhs),rhsMax =  -6.94877482658822E-03  2.17827926573792E-01
 cg2d: Sum(rhs),rhsMax =  -6.94901248423408E-03  2.17832826827572E-01
 cg2d: Sum(rhs),rhsMax =  -6.94925117046420E-03  2.17837728544269E-01
 cg2d: Sum(rhs),rhsMax =  -6.94949088546975E-03  2.17842631725782E-01
 cg2d: Sum(rhs),rhsMax =  -6.94973162796664E-03  2.17847536373990E-01
 cg2d: Sum(rhs),rhsMax =  -6.94997339644882E-03  2.17852442490768E-01
 cg2d: Sum(rhs),rhsMax =  -6.95021619062298E-03  2.17857350077989E-01
 cg2d: Sum(rhs),rhsMax =  -6.95046000833437E-03  2.17862259137508E-01
 cg2d: Sum(rhs),rhsMax =  -6.95070484924111E-03  2.17867169671174E-01
 cg2d: Sum(rhs),rhsMax =  -6.95095071189497E-03  2.17872081680837E-01
 cg2d: Sum(rhs),rhsMax =  -6.95119759477423E-03  2.17876995168324E-01
 cg2d: Sum(rhs),rhsMax =  -6.95144549674502E-03  2.17881910135467E-01
 cg2d: Sum(rhs),rhsMax =  -6.95169441617027E-03  2.17886826584075E-01
 cg2d: Sum(rhs),rhsMax =  -6.95194435135812E-03  2.17891744515965E-01
 cg2d: Sum(rhs),rhsMax =  -6.95219530086271E-03  2.17896663932931E-01
 cg2d: Sum(rhs),rhsMax =  -6.95244726345319E-03  2.17901584836770E-01
 cg2d: Sum(rhs),rhsMax =  -6.95270023654315E-03  2.17906507229266E-01
 cg2d: Sum(rhs),rhsMax =  -6.95295421932792E-03  2.17911431112192E-01
 cg2d: Sum(rhs),rhsMax =  -6.95320920928310E-03  2.17916356487309E-01
 cg2d: Sum(rhs),rhsMax =  -6.95346520498159E-03  2.17921283356385E-01
 cg2d: Sum(rhs),rhsMax =  -6.95372220412802E-03  2.17926211721167E-01
 cg2d: Sum(rhs),rhsMax =  -6.95398020506757E-03  2.17931141583396E-01
 cg2d: Sum(rhs),rhsMax =  -6.95423920554390E-03  2.17936072944800E-01
 cg2d: Sum(rhs),rhsMax =  -6.95449920359066E-03  2.17941005807111E-01
 cg2d: Sum(rhs),rhsMax =  -6.95476019708557E-03  2.17945940172041E-01
 cg2d: Sum(rhs),rhsMax =  -6.95502218319104E-03  2.17950876041296E-01
 cg2d: Sum(rhs),rhsMax =  -6.95528516047067E-03  2.17955813416577E-01
 cg2d: Sum(rhs),rhsMax =  -6.95554912634823E-03  2.17960752299572E-01
 cg2d: Sum(rhs),rhsMax =  -6.95581407812623E-03  2.17965692691964E-01
 cg2d: Sum(rhs),rhsMax =  -6.95608001354594E-03  2.17970634595426E-01
 cg2d: Sum(rhs),rhsMax =  -6.95634693027083E-03  2.17975578011622E-01
 cg2d: Sum(rhs),rhsMax =  -6.95661482556575E-03  2.17980522942211E-01
 cg2d: Sum(rhs),rhsMax =  -6.95688369723700E-03  2.17985469388834E-01
 cg2d: Sum(rhs),rhsMax =  -6.95715354202828E-03  2.17990417353138E-01
 cg2d: Sum(rhs),rhsMax =  -6.95742435773264E-03  2.17995366836747E-01
 cg2d: Sum(rhs),rhsMax =  -6.95769614137153E-03  2.18000317841286E-01
 cg2d: Sum(rhs),rhsMax =  -6.95796889023543E-03  2.18005270368364E-01
 cg2d: Sum(rhs),rhsMax =  -6.95824260140031E-03  2.18010224419594E-01
 cg2d: Sum(rhs),rhsMax =  -6.95851727229726E-03  2.18015179996560E-01
 cg2d: Sum(rhs),rhsMax =  -6.95879290013575E-03  2.18020137100857E-01
 cg2d: Sum(rhs),rhsMax =  -6.95906948117083E-03  2.18025095734057E-01
 cg2d: Sum(rhs),rhsMax =  -6.95934701280056E-03  2.18030055897741E-01
 cg2d: Sum(rhs),rhsMax =  -6.95962549213419E-03  2.18035017593462E-01
 cg2d: Sum(rhs),rhsMax =  -6.95990491629610E-03  2.18039980822773E-01
 cg2d: Sum(rhs),rhsMax =  -6.96018528137049E-03  2.18044945587215E-01
 cg2d: Sum(rhs),rhsMax =  -6.96046658444441E-03  2.18049911888331E-01
 cg2d: Sum(rhs),rhsMax =  -6.96074882258760E-03  2.18054879727644E-01
 cg2d: Sum(rhs),rhsMax =  -6.96103199210540E-03  2.18059849106670E-01
 cg2d: Sum(rhs),rhsMax =  -6.96131608992356E-03  2.18064820026919E-01
 cg2d: Sum(rhs),rhsMax =  -6.96160111266106E-03  2.18069792489892E-01
 cg2d: Sum(rhs),rhsMax =  -6.96188705685414E-03  2.18074766497076E-01
 cg2d: Sum(rhs),rhsMax =  -6.96217391921836E-03  2.18079742049964E-01
 cg2d: Sum(rhs),rhsMax =  -6.96246169608475E-03  2.18084719150022E-01
 cg2d: Sum(rhs),rhsMax =  -6.96275038402528E-03  2.18089697798714E-01
 cg2d: Sum(rhs),rhsMax =  -6.96303997951274E-03  2.18094677997506E-01
 cg2d: Sum(rhs),rhsMax =  -6.96333047816386E-03  2.18099659747839E-01
 cg2d: Sum(rhs),rhsMax =  -6.96362187752398E-03  2.18104643051147E-01
 cg2d: Sum(rhs),rhsMax =  -6.96391417353711E-03  2.18109627908877E-01
 cg2d: Sum(rhs),rhsMax =  -6.96420736225926E-03  2.18114614322434E-01
 cg2d: Sum(rhs),rhsMax =  -6.96450144022627E-03  2.18119602293239E-01
 cg2d: Sum(rhs),rhsMax =  -6.96479640333123E-03  2.18124591822691E-01
 cg2d: Sum(rhs),rhsMax =  -6.96509224767251E-03  2.18129582912191E-01
 cg2d: Sum(rhs),rhsMax =  -6.96538896973659E-03  2.18134575563119E-01
 cg2d: Sum(rhs),rhsMax =  -6.96568656559840E-03  2.18139569776859E-01
 cg2d: Sum(rhs),rhsMax =  -6.96598503125939E-03  2.18144565554778E-01
 cg2d: Sum(rhs),rhsMax =  -6.96628436261552E-03  2.18149562898236E-01
 cg2d: Sum(rhs),rhsMax =  -6.96658455554303E-03  2.18154561808580E-01
 cg2d: Sum(rhs),rhsMax =  -6.96688560618580E-03  2.18159562287154E-01
(PID.TID 0000.0001)      cg2d_init_res =   3.83789314181182E-04
(PID.TID 0000.0001)      cg2d_iters(min,last) =      -1      70
(PID.TID 0000.0001)      cg2d_last_res =   9.85915357522414E-08
(PID.TID 0000.0001) // =======================================================
(PID.TID 0000.0001) // Begin MONITOR dynamic field statistics
(PID.TID 0000.0001) // =======================================================
(PID.TID 0000.0001) %MON time_tsnumber                =                 16488
(PID.TID 0000.0001) %MON time_secondsf                =   1.9785600000000E+07
(PID.TID 0000.0001) %MON dynstat_eta_max              =   3.4619797055236E-01
(PID.TID 0000.0001) %MON dynstat_eta_min              =  -1.1077844880663E-01
(PID.TID 0000.0001) %MON dynstat_eta_mean             =   7.5960728990545E-06
(PID.TID 0000.0001) %MON dynstat_eta_sd               =   1.3372311270060E-01
(PID.TID 0000.0001) %MON dynstat_eta_del2             =   3.4503212314856E-05
(PID.TID 0000.0001) %MON dynstat_uvel_max             =   1.6674893727868E-01
(PID.TID 0000.0001) %MON dynstat_uvel_min             =  -1.2988574817462E-01
(PID.TID 0000.0001) %MON dynstat_uvel_mean            =  -6.6021398096127E-08
(PID.TID 0000.0001) %MON dynstat_uvel_sd              =   5.4581930628605E-02
(PID.TID 0000.0001) %MON dynstat_uvel_del2            =   7.4893721050211E-05
(PID.TID 0000.0001) %MON dynstat_vvel_max             =   1.1304099217887E-01
(PID.TID 0000.0001) %MON dynstat_vvel_min             =  -1.4082078527812E-01
(PID.TID 0000.0001) %MON dynstat_vvel_mean            =   7.0314252155687E-08
(PID.TID 0000.0001) %MON dynstat_vvel_sd              =   5.0065730349992E-02
(PID.TID 0000.0001) %MON dynstat_vvel_del2            =   3.6902360060064E-05
(PID.TID 0000.0001) %MON dynstat_wvel_max             =   1.3743216280127E-08
(PID.TID 0000.0001) %MON dynstat_wvel_min             =  -5.1794605719624E-09
(PID.TID 0000.0001) %MON dynstat_wvel_mean            =  -5.0806597250307E-21
(PID.TID 0000.0001) %MON dynstat_wvel_sd              =   4.6742631608059E-09
(PID.TID 0000.0001) %MON dynstat_wvel_del2            =   1.3658634008729E-12
(PID.TID 0000.0001) %MON dynstat_theta_max            =   2.0000000000000E+01
(PID.TID 0000.0001) %MON dynstat_theta_min            =   2.0000000000000E+01
(PID.TID 0000.0001) %MON dynstat_theta_mean           =   2.0000000000000E+01
(PID.TID 0000.0001) %MON dynstat_theta_sd             =   3.8014036363165E-13
(PID.TID 0000.0001) %MON dynstat_theta_del2           =   0.0000000000000E+00
(PID.TID 0000.0001) %MON dynstat_salt_max             =   3.0000000000000E+01
(PID.TID 0000.0001) %MON dynstat_salt_min             =   3.0000000000000E+01
(PID.TID 0000.0001) %MON dynstat_salt_mean            =   2.9999999999999E+01
(PID.TID 0000.0001) %MON dynstat_salt_sd              =   5.5777604757167E-13
(PID.TID 0000.0001) %MON dynstat_salt_del2            =   0.0000000000000E+00
(PID.TID 0000.0001) %MON trAdv_CFL_u_max              =   1.0003919373833E-02
(PID.TID 0000.0001) %MON trAdv_CFL_v_max              =   8.4379098943502E-03
(PID.TID 0000.0001) %MON trAdv_CFL_w_max              =   3.6327023530731E-09
(PID.TID 0000.0001) %MON advcfl_uvel_max              =   1.0004936236721E-02
(PID.TID 0000.0001) %MON advcfl_vvel_max              =   8.4492471166872E-03
(PID.TID 0000.0001) %MON advcfl_wvel_max              =   6.5967438144609E-09
(PID.TID 0000.0001) %MON advcfl_W_hf_max              =   0.0000000000000E+00
(PID.TID 0000.0001) %MON pe_b_mean                    =   1.8333114434389E-05
(PID.TID 0000.0001) %MON ke_max                       =   1.3926864246813E-02
(PID.TID 0000.0001) %MON ke_mean                      =   2.6924444446818E-03
(PID.TID 0000.0001) %MON ke_vol                       =   6.8893493896486E+15
(PID.TID 0000.0001) %MON vort_r_min                   =  -1.0232705866295E-06
(PID.TID 0000.0001) %MON vort_r_max                   =   3.5829004115547E-06
(PID.TID 0000.0001) %MON vort_a_mean                  =   1.0600000000000E-04
(PID.TID 0000.0001) %MON vort_a_sd                    =   3.5735561849928E-06
(PID.TID 0000.0001) %MON vort_p_mean                  =   1.1652272308690E-04
(PID.TID 0000.0001) %MON vort_p_sd                    =   4.1791576093800E-05
(PID.TID 0000.0001) %MON surfExpan_theta_mean         =  -1.0156592603986E-19
(PID.TID 0000.0001) %MON surfExpan_salt_mean          =  -1.5235646818231E-19
(PID.TID 0000.0001) // =======================================================
(PID.TID 0000.0001) // End MONITOR dynamic field statistics
(PID.TID 0000.0001) // =======================================================
 cg2d: Sum(rhs),rhsMax =  -6.96718751099365E-03  2.18164564335295E-01
 cg2d: Sum(rhs),rhsMax =  -6.96749026575078E-03  2.18169567954324E-01
 cg2d: Sum(rhs),rhsMax =  -6.96779386537705E-03  2.18174573145563E-01
 cg2d: Sum(rhs),rhsMax =  -6.96809830637161E-03  2.18179579910307E-01
 cg2d: Sum(rhs),rhsMax =  -6.96840358513199E-03  2.18184588249862E-01
 cg2d: Sum(rhs),rhsMax =  -6.96870969688610E-03  2.18189598165515E-01
 cg2d: Sum(rhs),rhsMax =  -6.96901663709516E-03  2.18194609658547E-01
 cg2d: Sum(rhs),rhsMax =  -6.96932440184189E-03  2.18199622730233E-01
 cg2d: Sum(rhs),rhsMax =  -6.96963298653577E-03  2.18204637381830E-01
 cg2d: Sum(rhs),rhsMax =  -6.96994238742239E-03  2.18209653614591E-01
 cg2d: Sum(rhs),rhsMax =  -6.97025259980151E-03  2.18214671429765E-01
 cg2d: Sum(rhs),rhsMax =  -6.97056361885758E-03  2.18219690828580E-01
 cg2d: Sum(rhs),rhsMax =  -6.97087544136549E-03  2.18224711812273E-01
 cg2d: Sum(rhs),rhsMax =  -6.97118806196825E-03  2.18229734382054E-01
 cg2d: Sum(rhs),rhsMax =  -6.97150147634782E-03  2.18234758539135E-01
 cg2d: Sum(rhs),rhsMax =  -6.97181568028447E-03  2.18239784284714E-01
 cg2d: Sum(rhs),rhsMax =  -6.97213066888582E-03  2.18244811619982E-01
 cg2d: Sum(rhs),rhsMax =  -6.97244643792405E-03  2.18249840546124E-01
 cg2d: Sum(rhs),rhsMax =  -6.97276298279041E-03  2.18254871064309E-01
 cg2d: Sum(rhs),rhsMax =  -6.97308029863833E-03  2.18259903175706E-01
 cg2d: Sum(rhs),rhsMax =  -6.97339838096707E-03  2.18264936881468E-01
 cg2d: Sum(rhs),rhsMax =  -6.97371722551953E-03  2.18269972182734E-01
 cg2d: Sum(rhs),rhsMax =  -6.97403682718580E-03  2.18275009080654E-01
 cg2d: Sum(rhs),rhsMax =  -6.97435718132965E-03  2.18280047576345E-01
 cg2d: Sum(rhs),rhsMax =  -6.97467828370903E-03  2.18285087670930E-01
 cg2d: Sum(rhs),rhsMax =  -6.97500012907382E-03  2.18290129365521E-01
 cg2d: Sum(rhs),rhsMax =  -6.97532271341213E-03  2.18295172661217E-01
 cg2d: Sum(rhs),rhsMax =  -6.97564603090357E-03  2.18300217559112E-01
 cg2d: Sum(rhs),rhsMax =  -6.97597007739774E-03  2.18305264060285E-01
 cg2d: Sum(rhs),rhsMax =  -6.97629484827017E-03  2.18310312165815E-01
 cg2d: Sum(rhs),rhsMax =  -6.97662033832059E-03  2.18315361876763E-01
 cg2d: Sum(rhs),rhsMax =  -6.97694654272791E-03  2.18320413194189E-01
 cg2d: Sum(rhs),rhsMax =  -6.97727345703116E-03  2.18325466119131E-01
 cg2d: Sum(rhs),rhsMax =  -6.97760107580358E-03  2.18330520652638E-01
 cg2d: Sum(rhs),rhsMax =  -6.97792939445683E-03  2.18335576795733E-01
 cg2d: Sum(rhs),rhsMax =  -6.97825840821649E-03  2.18340634549437E-01
 cg2d: Sum(rhs),rhsMax =  -6.97858811174443E-03  2.18345693914757E-01
 cg2d: Sum(rhs),rhsMax =  -6.97891850030459E-03  2.18350754892700E-01
 cg2d: Sum(rhs),rhsMax =  -6.97924956897611E-03  2.18355817484258E-01
 cg2d: Sum(rhs),rhsMax =  -6.97958131301975E-03  2.18360881690412E-01
 cg2d: Sum(rhs),rhsMax =  -6.97991372722505E-03  2.18365947512135E-01
 cg2d: Sum(rhs),rhsMax =  -6.98024680625456E-03  2.18371014950395E-01
 cg2d: Sum(rhs),rhsMax =  -6.98058054553821E-03  2.18376084006146E-01
 cg2d: Sum(rhs),rhsMax =  -6.98091493984585E-03  2.18381154680336E-01
 cg2d: Sum(rhs),rhsMax =  -6.98124998385274E-03  2.18386226973905E-01
 cg2d: Sum(rhs),rhsMax =  -6.98158567316331E-03  2.18391300887782E-01
 cg2d: Sum(rhs),rhsMax =  -6.98192200199544E-03  2.18396376422883E-01
 cg2d: Sum(rhs),rhsMax =  -6.98225896560188E-03  2.18401453580120E-01
 cg2d: Sum(rhs),rhsMax =  -6.98259655880919E-03  2.18406532360394E-01
 cg2d: Sum(rhs),rhsMax =  -6.98293477685048E-03  2.18411612764599E-01
 cg2d: Sum(rhs),rhsMax =  -6.98327361390839E-03  2.18416694793617E-01
 cg2d: Sum(rhs),rhsMax =  -6.98361306523852E-03  2.18421778448325E-01
 cg2d: Sum(rhs),rhsMax =  -6.98395312525833E-03  2.18426863729583E-01
 cg2d: Sum(rhs),rhsMax =  -6.98429378953771E-03  2.18431950638246E-01
 cg2d: Sum(rhs),rhsMax =  -6.98463505228411E-03  2.18437039175165E-01
 cg2d: Sum(rhs),rhsMax =  -6.98497690826482E-03  2.18442129341183E-01
 cg2d: Sum(rhs),rhsMax =  -6.98531935246446E-03  2.18447221137112E-01
 cg2d: Sum(rhs),rhsMax =  -6.98566237994951E-03  2.18452314563788E-01
 cg2d: Sum(rhs),rhsMax =  -6.98600598500471E-03  2.18457409622008E-01
 cg2d: Sum(rhs),rhsMax =  -6.98635016262619E-03  2.18462506312581E-01
 cg2d: Sum(rhs),rhsMax =  -6.98669490752305E-03  2.18467604636294E-01
 cg2d: Sum(rhs),rhsMax =  -6.98704021415876E-03  2.18472704593932E-01
 cg2d: Sum(rhs),rhsMax =  -6.98738607763695E-03  2.18477806186273E-01
 cg2d: Sum(rhs),rhsMax =  -6.98773249221772E-03  2.18482909414066E-01
 cg2d: Sum(rhs),rhsMax =  -6.98807945308019E-03  2.18488014278079E-01
 cg2d: Sum(rhs),rhsMax =  -6.98842695511279E-03  2.18493120779056E-01
 cg2d: Sum(rhs),rhsMax =  -6.98877499243854E-03  2.18498228917730E-01
 cg2d: Sum(rhs),rhsMax =  -6.98912355961218E-03  2.18503338694829E-01
 cg2d: Sum(rhs),rhsMax =  -6.98947265197706E-03  2.18508450111074E-01
 cg2d: Sum(rhs),rhsMax =  -6.98982226382287E-03  2.18513563167167E-01
 cg2d: Sum(rhs),rhsMax =  -6.99017238951959E-03  2.18518677863817E-01
 cg2d: Sum(rhs),rhsMax =  -6.99052302440349E-03  2.18523794201706E-01
(PID.TID 0000.0001)      cg2d_init_res =   3.81597179623077E-04
(PID.TID 0000.0001)      cg2d_iters(min,last) =      -1      70
(PID.TID 0000.0001)      cg2d_last_res =   9.89094562864905E-08
(PID.TID 0000.0001) // =======================================================
(PID.TID 0000.0001) // Begin MONITOR dynamic field statistics
(PID.TID 0000.0001) // =======================================================
(PID.TID 0000.0001) %MON time_tsnumber                =                 16560
(PID.TID 0000.0001) %MON time_secondsf                =   1.9872000000000E+07
(PID.TID 0000.0001) %MON dynstat_eta_max              =   3.4731785218815E-01
(PID.TID 0000.0001) %MON dynstat_eta_min              =  -1.1109885300251E-01
(PID.TID 0000.0001) %MON dynstat_eta_mean             =   7.6346266236393E-06
(PID.TID 0000.0001) %MON dynstat_eta_sd               =   1.3410950482706E-01
(PID.TID 0000.0001) %MON dynstat_eta_del2             =   3.4577123334755E-05
(PID.TID 0000.0001) %MON dynstat_uvel_max             =   1.6702205561076E-01
(PID.TID 0000.0001) %MON dynstat_uvel_min             =  -1.3023313921377E-01
(PID.TID 0000.0001) %MON dynstat_uvel_mean            =  -7.0805456016782E-08
(PID.TID 0000.0001) %MON dynstat_uvel_sd              =   5.4724292393840E-02
(PID.TID 0000.0001) %MON dynstat_uvel_del2            =   7.4944293569674E-05
(PID.TID 0000.0001) %MON dynstat_vvel_max             =   1.1349122705171E-01
(PID.TID 0000.0001) %MON dynstat_vvel_min             =  -1.4121731226444E-01
(PID.TID 0000.0001) %MON dynstat_vvel_mean            =   7.7214106068469E-08
(PID.TID 0000.0001) %MON dynstat_vvel_sd              =   5.0220726548199E-02
(PID.TID 0000.0001) %MON dynstat_vvel_del2            =   3.6901044226716E-05
(PID.TID 0000.0001) %MON dynstat_wvel_max             =   1.3748657102697E-08
(PID.TID 0000.0001) %MON dynstat_wvel_min             =  -5.2560986153549E-09
(PID.TID 0000.0001) %MON dynstat_wvel_mean            =   8.8542719822726E-22
(PID.TID 0000.0001) %MON dynstat_wvel_sd              =   4.6628044744129E-09
(PID.TID 0000.0001) %MON dynstat_wvel_del2            =   1.3552993063649E-12
(PID.TID 0000.0001) %MON dynstat_theta_max            =   2.0000000000000E+01
(PID.TID 0000.0001) %MON dynstat_theta_min            =   2.0000000000000E+01
(PID.TID 0000.0001) %MON dynstat_theta_mean           =   2.0000000000000E+01
(PID.TID 0000.0001) %MON dynstat_theta_sd             =   3.8014036363165E-13
(PID.TID 0000.0001) %MON dynstat_theta_del2           =   0.0000000000000E+00
(PID.TID 0000.0001) %MON dynstat_salt_max             =   3.0000000000000E+01
(PID.TID 0000.0001) %MON dynstat_salt_min             =   3.0000000000000E+01
(PID.TID 0000.0001) %MON dynstat_salt_mean            =   2.9999999999999E+01
(PID.TID 0000.0001) %MON dynstat_salt_sd              =   5.5777604757167E-13
(PID.TID 0000.0001) %MON dynstat_salt_del2            =   0.0000000000000E+00
(PID.TID 0000.0001) %MON trAdv_CFL_u_max              =   1.0020302379337E-02
(PID.TID 0000.0001) %MON trAdv_CFL_v_max              =   8.4616801287293E-03
(PID.TID 0000.0001) %MON trAdv_CFL_w_max              =   3.6260957981689E-09
(PID.TID 0000.0001) %MON advcfl_uvel_max              =   1.0021323336646E-02
(PID.TID 0000.0001) %MON advcfl_vvel_max              =   8.4730387358663E-03
(PID.TID 0000.0001) %MON advcfl_wvel_max              =   6.5993554092944E-09
(PID.TID 0000.0001) %MON advcfl_W_hf_max              =   0.0000000000000E+00
(PID.TID 0000.0001) %MON pe_b_mean                    =   1.8439214347889E-05
(PID.TID 0000.0001) %MON ke_max                       =   1.3972933225654E-02
(PID.TID 0000.0001) %MON ke_mean                      =   2.7077109785105E-03
(PID.TID 0000.0001) %MON ke_vol                       =   6.8893493896486E+15
(PID.TID 0000.0001) %MON vort_r_min                   =  -1.0261275101483E-06
(PID.TID 0000.0001) %MON vort_r_max                   =   3.5884389151840E-06
(PID.TID 0000.0001) %MON vort_a_mean                  =   1.0600000000000E-04
(PID.TID 0000.0001) %MON vort_a_sd                    =   3.5737676912345E-06
(PID.TID 0000.0001) %MON vort_p_mean                  =   1.1652272308690E-04
(PID.TID 0000.0001) %MON vort_p_sd                    =   4.1791650369750E-05
(PID.TID 0000.0001) %MON surfExpan_theta_mean         =   1.7757252458574E-20
(PID.TID 0000.0001) %MON surfExpan_salt_mean          =   2.6640931436203E-20
(PID.TID 0000.0001) // =======================================================
(PID.TID 0000.0001) // End MONITOR dynamic field statistics
(PID.TID 0000.0001) // =======================================================
 cg2d: Sum(rhs),rhsMax =  -6.99087416267037E-03  2.18528912181520E-01
 cg2d: Sum(rhs),rhsMax =  -6.99122579870241E-03  2.18534031803931E-01
 cg2d: Sum(rhs),rhsMax =  -6.99157792764089E-03  2.18539153069595E-01
 cg2d: Sum(rhs),rhsMax =  -6.99193054365035E-03  2.18544275979174E-01
 cg2d: Sum(rhs),rhsMax =  -6.99228364170519E-03  2.18549400533310E-01
 cg2d: Sum(rhs),rhsMax =  -6.99263721603295E-03  2.18554526732636E-01
 cg2d: Sum(rhs),rhsMax =  -6.99299126181687E-03  2.18559654577780E-01
 cg2d: Sum(rhs),rhsMax =  -6.99334577301731E-03  2.18564784069355E-01
 cg2d: Sum(rhs),rhsMax =  -6.99370074476379E-03  2.18569915207973E-01
 cg2d: Sum(rhs),rhsMax =  -6.99405617090303E-03  2.18575047994225E-01
 cg2d: Sum(rhs),rhsMax =  -6.99441204654477E-03  2.18580182428704E-01
 cg2d: Sum(rhs),rhsMax =  -6.99476836652294E-03  2.18585318511996E-01
 cg2d: Sum(rhs),rhsMax =  -6.99512512502798E-03  2.18590456244657E-01
 cg2d: Sum(rhs),rhsMax =  -6.99548231634734E-03  2.18595595627258E-01
 cg2d: Sum(rhs),rhsMax =  -6.99583993536026E-03  2.18600736660348E-01
 cg2d: Sum(rhs),rhsMax =  -6.99619797680153E-03  2.18605879344472E-01
 cg2d: Sum(rhs),rhsMax =  -6.99655643494538E-03  2.18611023680157E-01
 cg2d: Sum(rhs),rhsMax =  -6.99691530474592E-03  2.18616169667932E-01
 cg2d: Sum(rhs),rhsMax =  -6.99727458023759E-03  2.18621317308308E-01
 cg2d: Sum(rhs),rhsMax =  -6.99763425580603E-03  2.18626466601796E-01
 cg2d: Sum(rhs),rhsMax =  -6.99799432658722E-03  2.18631617548882E-01
 cg2d: Sum(rhs),rhsMax =  -6.99835478657447E-03  2.18636770150065E-01
 cg2d: Sum(rhs),rhsMax =  -6.99871563108099E-03  2.18641924405812E-01
 cg2d: Sum(rhs),rhsMax =  -6.99907685353247E-03  2.18647080316597E-01
 cg2d: Sum(rhs),rhsMax =  -6.99943844942780E-03  2.18652237882877E-01
 cg2d: Sum(rhs),rhsMax =  -6.99980041252714E-03  2.18657397105098E-01
 cg2d: Sum(rhs),rhsMax =  -7.00016273809812E-03  2.18662557983707E-01
 cg2d: Sum(rhs),rhsMax =  -7.00052541989853E-03  2.18667720519134E-01
 cg2d: Sum(rhs),rhsMax =  -7.00088845315158E-03  2.18672884711792E-01
 cg2d: Sum(rhs),rhsMax =  -7.00125183181791E-03  2.18678050562099E-01
 cg2d: Sum(rhs),rhsMax =  -7.00161555069234E-03  2.18683218070465E-01
 cg2d: Sum(rhs),rhsMax =  -7.00197960428177E-03  2.18688387237274E-01
 cg2d: Sum(rhs),rhsMax =  -7.00234398720541E-03  2.18693558062908E-01
 cg2d: Sum(rhs),rhsMax =  -7.00270869350509E-03  2.18698730547749E-01
 cg2d: Sum(rhs),rhsMax =  -7.00307371819175E-03  2.18703904692162E-01
 cg2d: Sum(rhs),rhsMax =  -7.00343905526177E-03  2.18709080496501E-01
 cg2d: Sum(rhs),rhsMax =  -7.00380469983579E-03  2.18714257961114E-01
 cg2d: Sum(rhs),rhsMax =  -7.00417064578579E-03  2.18719437086339E-01
 cg2d: Sum(rhs),rhsMax =  -7.00453688789019E-03  2.18724617872504E-01
 cg2d: Sum(rhs),rhsMax =  -7.00490342085002E-03  2.18729800319926E-01
 cg2d: Sum(rhs),rhsMax =  -7.00527023918719E-03  2.18734984428918E-01
 cg2d: Sum(rhs),rhsMax =  -7.00563733733889E-03  2.18740170199778E-01
 cg2d: Sum(rhs),rhsMax =  -7.00600470977163E-03  2.18745357632801E-01
 cg2d: Sum(rhs),rhsMax =  -7.00637235082191E-03  2.18750546728261E-01
 cg2d: Sum(rhs),rhsMax =  -7.00674025521113E-03  2.18755737486439E-01
 cg2d: Sum(rhs),rhsMax =  -7.00710841680062E-03  2.18760929907592E-01
 cg2d: Sum(rhs),rhsMax =  -7.00747683101235E-03  2.18766123991974E-01
 cg2d: Sum(rhs),rhsMax =  -7.00784549240313E-03  2.18771319739834E-01
 cg2d: Sum(rhs),rhsMax =  -7.00821439489113E-03  2.18776517151402E-01
 cg2d: Sum(rhs),rhsMax =  -7.00858353312818E-03  2.18781716226903E-01
 cg2d: Sum(rhs),rhsMax =  -7.00895290149578E-03  2.18786916966558E-01
 cg2d: Sum(rhs),rhsMax =  -7.00932249476431E-03  2.18792119370568E-01
 cg2d: Sum(rhs),rhsMax =  -7.00969230739231E-03  2.18797323439138E-01
 cg2d: Sum(rhs),rhsMax =  -7.01006233407037E-03  2.18802529172449E-01
 cg2d: Sum(rhs),rhsMax =  -7.01043256894299E-03  2.18807736570684E-01
 cg2d: Sum(rhs),rhsMax =  -7.01080300683558E-03  2.18812945634013E-01
 cg2d: Sum(rhs),rhsMax =  -7.01117364244364E-03  2.18818156362595E-01
 cg2d: Sum(rhs),rhsMax =  -7.01154447008267E-03  2.18823368756577E-01
 cg2d: Sum(rhs),rhsMax =  -7.01191548385214E-03  2.18828582816105E-01
 cg2d: Sum(rhs),rhsMax =  -7.01228667924756E-03  2.18833798541310E-01
 cg2d: Sum(rhs),rhsMax =  -7.01265804968304E-03  2.18839015932311E-01
 cg2d: Sum(rhs),rhsMax =  -7.01302959065273E-03  2.18844234989228E-01
 cg2d: Sum(rhs),rhsMax =  -7.01340129657238E-03  2.18849455712162E-01
 cg2d: Sum(rhs),rhsMax =  -7.01377316122798E-03  2.18854678101207E-01
 cg2d: Sum(rhs),rhsMax =  -7.01414517984977E-03  2.18859902156448E-01
 cg2d: Sum(rhs),rhsMax =  -7.01451734697765E-03  2.18865127877961E-01
 cg2d: Sum(rhs),rhsMax =  -7.01488965698021E-03  2.18870355265809E-01
 cg2d: Sum(rhs),rhsMax =  -7.01526210448306E-03  2.18875584320054E-01
 cg2d: Sum(rhs),rhsMax =  -7.01563468427011E-03  2.18880815040746E-01
 cg2d: Sum(rhs),rhsMax =  -7.01600739045859E-03  2.18886047427921E-01
 cg2d: Sum(rhs),rhsMax =  -7.01638021783313E-03  2.18891281481601E-01
 cg2d: Sum(rhs),rhsMax =  -7.01675316119905E-03  2.18896517201816E-01
(PID.TID 0000.0001)      cg2d_init_res =   3.79602698609792E-04
(PID.TID 0000.0001)      cg2d_iters(min,last) =      -1      70
(PID.TID 0000.0001)      cg2d_last_res =   9.85665456437275E-08
(PID.TID 0000.0001) // =======================================================
(PID.TID 0000.0001) // Begin MONITOR dynamic field statistics
(PID.TID 0000.0001) // =======================================================
(PID.TID 0000.0001) %MON time_tsnumber                =                 16632
(PID.TID 0000.0001) %MON time_secondsf                =   1.9958400000000E+07
(PID.TID 0000.0001) %MON dynstat_eta_max              =   3.4843424375490E-01
(PID.TID 0000.0001) %MON dynstat_eta_min              =  -1.1140895438648E-01
(PID.TID 0000.0001) %MON dynstat_eta_mean             =   7.6763707959981E-06
(PID.TID 0000.0001) %MON dynstat_eta_sd               =   1.3449520600045E-01
(PID.TID 0000.0001) %MON dynstat_eta_del2             =   3.4651169660527E-05
(PID.TID 0000.0001) %MON dynstat_uvel_max             =   1.6729903559448E-01
(PID.TID 0000.0001) %MON dynstat_uvel_min             =  -1.3059269867770E-01
(PID.TID 0000.0001) %MON dynstat_uvel_mean            =  -7.3712024488649E-08
(PID.TID 0000.0001) %MON dynstat_uvel_sd              =   5.4868480256443E-02
(PID.TID 0000.0001) %MON dynstat_uvel_del2            =   7.4995624517926E-05
(PID.TID 0000.0001) %MON dynstat_vvel_max             =   1.1393708968790E-01
(PID.TID 0000.0001) %MON dynstat_vvel_min             =  -1.4160265580089E-01
(PID.TID 0000.0001) %MON dynstat_vvel_mean            =   8.4537262364705E-08
(PID.TID 0000.0001) %MON dynstat_vvel_sd              =   5.0373115261369E-02
(PID.TID 0000.0001) %MON dynstat_vvel_del2            =   3.6905235557099E-05
(PID.TID 0000.0001) %MON dynstat_wvel_max             =   1.3732750260970E-08
(PID.TID 0000.0001) %MON dynstat_wvel_min             =  -5.3377840400208E-09
(PID.TID 0000.0001) %MON dynstat_wvel_mean            =  -7.9464583298735E-21
(PID.TID 0000.0001) %MON dynstat_wvel_sd              =   4.6495375550968E-09
(PID.TID 0000.0001) %MON dynstat_wvel_del2            =   1.3448638670856E-12
(PID.TID 0000.0001) %MON dynstat_theta_max            =   2.0000000000000E+01
(PID.TID 0000.0001) %MON dynstat_theta_min            =   2.0000000000000E+01
(PID.TID 0000.0001) %MON dynstat_theta_mean           =   2.0000000000000E+01
(PID.TID 0000.0001) %MON dynstat_theta_sd             =   3.8014036363165E-13
(PID.TID 0000.0001) %MON dynstat_theta_del2           =   0.0000000000000E+00
(PID.TID 0000.0001) %MON dynstat_salt_max             =   3.0000000000000E+01
(PID.TID 0000.0001) %MON dynstat_salt_min             =   3.0000000000000E+01
(PID.TID 0000.0001) %MON dynstat_salt_mean            =   2.9999999999999E+01
(PID.TID 0000.0001) %MON dynstat_salt_sd              =   5.5777604757167E-13
(PID.TID 0000.0001) %MON dynstat_salt_del2            =   0.0000000000000E+00
(PID.TID 0000.0001) %MON trAdv_CFL_u_max              =   1.0036916257110E-02
(PID.TID 0000.0001) %MON trAdv_CFL_v_max              =   8.4847796286143E-03
(PID.TID 0000.0001) %MON trAdv_CFL_w_max              =   3.6219804185699E-09
(PID.TID 0000.0001) %MON advcfl_uvel_max              =   1.0037942135669E-02
(PID.TID 0000.0001) %MON advcfl_vvel_max              =   8.4961593480536E-03
(PID.TID 0000.0001) %MON advcfl_wvel_max              =   6.5917201252654E-09
(PID.TID 0000.0001) %MON advcfl_W_hf_max              =   0.0000000000000E+00
(PID.TID 0000.0001) %MON pe_b_mean                    =   1.8545429843858E-05
(PID.TID 0000.0001) %MON ke_max                       =   1.4019653282248E-02
(PID.TID 0000.0001) %MON ke_mean                      =   2.7229904044990E-03
(PID.TID 0000.0001) %MON ke_vol                       =   6.8893493896486E+15
(PID.TID 0000.0001) %MON vort_r_min                   =  -1.0289361945008E-06
(PID.TID 0000.0001) %MON vort_r_max                   =   3.5940293998731E-06
(PID.TID 0000.0001) %MON vort_a_mean                  =   1.0600000000000E-04
(PID.TID 0000.0001) %MON vort_a_sd                    =   3.5739820759631E-06
(PID.TID 0000.0001) %MON vort_p_mean                  =   1.1652272308690E-04
(PID.TID 0000.0001) %MON vort_p_sd                    =   4.1791726033866E-05
(PID.TID 0000.0001) %MON surfExpan_theta_mean         =  -1.5890451423830E-19
(PID.TID 0000.0001) %MON surfExpan_salt_mean          =  -2.3836845583800E-19
(PID.TID 0000.0001) // =======================================================
(PID.TID 0000.0001) // End MONITOR dynamic field statistics
(PID.TID 0000.0001) // =======================================================
 cg2d: Sum(rhs),rhsMax =  -7.01712621469782E-03  2.18901754588571E-01
 cg2d: Sum(rhs),rhsMax =  -7.01749937334464E-03  2.18906993641868E-01
 cg2d: Sum(rhs),rhsMax =  -7.01787263119813E-03  2.18912234361699E-01
 cg2d: Sum(rhs),rhsMax =  -7.01824598331297E-03  2.18917476748041E-01
 cg2d: Sum(rhs),rhsMax =  -7.01861942441010E-03  2.18922720800877E-01
 cg2d: Sum(rhs),rhsMax =  -7.01899294922591E-03  2.18927966520158E-01
 cg2d: Sum(rhs),rhsMax =  -7.01936655175010E-03  2.18933213905851E-01
 cg2d: Sum(rhs),rhsMax =  -7.01974022673530E-03  2.18938462957893E-01
 cg2d: Sum(rhs),rhsMax =  -7.02011396910246E-03  2.18943713676218E-01
 cg2d: Sum(rhs),rhsMax =  -7.02048777359468E-03  2.18948966060759E-01
 cg2d: Sum(rhs),rhsMax =  -7.02086163449379E-03  2.18954220111424E-01
 cg2d: Sum(rhs),rhsMax =  -7.02123554620259E-03  2.18959475828124E-01
 cg2d: Sum(rhs),rhsMax =  -7.02160950420698E-03  2.18964733210763E-01
 cg2d: Sum(rhs),rhsMax =  -7.02198350272865E-03  2.18969992259218E-01
 cg2d: Sum(rhs),rhsMax =  -7.02235753651613E-03  2.18975252973377E-01
 cg2d: Sum(rhs),rhsMax =  -7.02273159949234E-03  2.18980515353103E-01
 cg2d: Sum(rhs),rhsMax =  -7.02310568741478E-03  2.18985779398263E-01
 cg2d: Sum(rhs),rhsMax =  -7.02347979420605E-03  2.18991045108707E-01
 cg2d: Sum(rhs),rhsMax =  -7.02385391504880E-03  2.18996312484269E-01
 cg2d: Sum(rhs),rhsMax =  -7.02422804484622E-03  2.19001581524789E-01
 cg2d: Sum(rhs),rhsMax =  -7.02460217730610E-03  2.19006852230085E-01
 cg2d: Sum(rhs),rhsMax =  -7.02497630789075E-03  2.19012124599977E-01
 cg2d: Sum(rhs),rhsMax =  -7.02535043102819E-03  2.19017398634267E-01
 cg2d: Sum(rhs),rhsMax =  -7.02572454159251E-03  2.19022674332745E-01
 cg2d: Sum(rhs),rhsMax =  -7.02609863424955E-03  2.19027951695198E-01
 cg2d: Sum(rhs),rhsMax =  -7.02647270365805E-03  2.19033230721407E-01
 cg2d: Sum(rhs),rhsMax =  -7.02684674461027E-03  2.19038511411126E-01
 cg2d: Sum(rhs),rhsMax =  -7.02722075188518E-03  2.19043793764131E-01
 cg2d: Sum(rhs),rhsMax =  -7.02759472034173E-03  2.19049077780157E-01
 cg2d: Sum(rhs),rhsMax =  -7.02796864508708E-03  2.19054363458951E-01
 cg2d: Sum(rhs),rhsMax =  -7.02834251977177E-03  2.19059650800229E-01
 cg2d: Sum(rhs),rhsMax =  -7.02871633990656E-03  2.19064939803726E-01
 cg2d: Sum(rhs),rhsMax =  -7.02909010056832E-03  2.19070230469141E-01
 cg2d: Sum(rhs),rhsMax =  -7.02946379591320E-03  2.19075522796180E-01
 cg2d: Sum(rhs),rhsMax =  -7.02983742123501E-03  2.19080816784537E-01
 cg2d: Sum(rhs),rhsMax =  -7.03021097109295E-03  2.19086112433893E-01
 cg2d: Sum(rhs),rhsMax =  -7.03058444053469E-03  2.19091409743919E-01
 cg2d: Sum(rhs),rhsMax =  -7.03095782376909E-03  2.19096708714278E-01
 cg2d: Sum(rhs),rhsMax =  -7.03133111645044E-03  2.19102009344627E-01
 cg2d: Sum(rhs),rhsMax =  -7.03170431304492E-03  2.19107311634611E-01
 cg2d: Sum(rhs),rhsMax =  -7.03207740847726E-03  2.19112615583863E-01
 cg2d: Sum(rhs),rhsMax =  -7.03245039772814E-03  2.19117921192019E-01
 cg2d: Sum(rhs),rhsMax =  -7.03282327509797E-03  2.19123228458680E-01
 cg2d: Sum(rhs),rhsMax =  -7.03319603604313E-03  2.19128537383462E-01
 cg2d: Sum(rhs),rhsMax =  -7.03356867526964E-03  2.19133847965965E-01
 cg2d: Sum(rhs),rhsMax =  -7.03394118795189E-03  2.19139160205778E-01
 cg2d: Sum(rhs),rhsMax =  -7.03431356850166E-03  2.19144474102480E-01
 cg2d: Sum(rhs),rhsMax =  -7.03468581238079E-03  2.19149789655635E-01
 cg2d: Sum(rhs),rhsMax =  -7.03505791432651E-03  2.19155106864814E-01
 cg2d: Sum(rhs),rhsMax =  -7.03542986899607E-03  2.19160425729560E-01
 cg2d: Sum(rhs),rhsMax =  -7.03580167183736E-03  2.19165746249426E-01
 cg2d: Sum(rhs),rhsMax =  -7.03617331680592E-03  2.19171068423930E-01
 cg2d: Sum(rhs),rhsMax =  -7.03654480007457E-03  2.19176392252609E-01
 cg2d: Sum(rhs),rhsMax =  -7.03691611619237E-03  2.19181717734971E-01
 cg2d: Sum(rhs),rhsMax =  -7.03728725979788E-03  2.19187044870519E-01
 cg2d: Sum(rhs),rhsMax =  -7.03765822660932E-03  2.19192373658757E-01
 cg2d: Sum(rhs),rhsMax =  -7.03802901061662E-03  2.19197704099164E-01
 cg2d: Sum(rhs),rhsMax =  -7.03839960769772E-03  2.19203036191217E-01
 cg2d: Sum(rhs),rhsMax =  -7.03877001270511E-03  2.19208369934384E-01
 cg2d: Sum(rhs),rhsMax =  -7.03914022069719E-03  2.19213705328130E-01
 cg2d: Sum(rhs),rhsMax =  -7.03951022656218E-03  2.19219042371902E-01
 cg2d: Sum(rhs),rhsMax =  -7.03988002560904E-03  2.19224381065129E-01
 cg2d: Sum(rhs),rhsMax =  -7.04024961276064E-03  2.19229721407254E-01
 cg2d: Sum(rhs),rhsMax =  -7.04061898306458E-03  2.19235063397696E-01
 cg2d: Sum(rhs),rhsMax =  -7.04098813160599E-03  2.19240407035858E-01
 cg2d: Sum(rhs),rhsMax =  -7.04135705389797E-03  2.19245752321153E-01
 cg2d: Sum(rhs),rhsMax =  -7.04172574458792E-03  2.19251099252971E-01
 cg2d: Sum(rhs),rhsMax =  -7.04209419906849E-03  2.19256447830694E-01
 cg2d: Sum(rhs),rhsMax =  -7.04246241234997E-03  2.19261798053696E-01
 cg2d: Sum(rhs),rhsMax =  -7.04283037924376E-03  2.19267149921352E-01
 cg2d: Sum(rhs),rhsMax =  -7.04319809587937E-03  2.19272503433003E-01
 cg2d: Sum(rhs),rhsMax =  -7.04356555655274E-03  2.19277858588008E-01
(PID.TID 0000.0001)      cg2d_init_res =   3.77809022860762E-04
(PID.TID 0000.0001)      cg2d_iters(min,last) =      -1      70
(PID.TID 0000.0001)      cg2d_last_res =   9.78473564085968E-08
(PID.TID 0000.0001) // =======================================================
(PID.TID 0000.0001) // Begin MONITOR dynamic field statistics
(PID.TID 0000.0001) // =======================================================
(PID.TID 0000.0001) %MON time_tsnumber                =                 16704
(PID.TID 0000.0001) %MON time_secondsf                =   2.0044800000000E+07
(PID.TID 0000.0001) %MON dynstat_eta_max              =   3.4954719537240E-01
(PID.TID 0000.0001) %MON dynstat_eta_min              =  -1.1170811043020E-01
(PID.TID 0000.0001) %MON dynstat_eta_mean             =   7.7191237942050E-06
(PID.TID 0000.0001) %MON dynstat_eta_sd               =   1.3488003847491E-01
(PID.TID 0000.0001) %MON dynstat_eta_del2             =   3.4725400600403E-05
(PID.TID 0000.0001) %MON dynstat_uvel_max             =   1.6758078214426E-01
(PID.TID 0000.0001) %MON dynstat_uvel_min             =  -1.3096528089788E-01
(PID.TID 0000.0001) %MON dynstat_uvel_mean            =  -7.4677009177374E-08
(PID.TID 0000.0001) %MON dynstat_uvel_sd              =   5.5014623860549E-02
(PID.TID 0000.0001) %MON dynstat_uvel_del2            =   7.5047999134707E-05
(PID.TID 0000.0001) %MON dynstat_vvel_max             =   1.1437681050045E-01
(PID.TID 0000.0001) %MON dynstat_vvel_min             =  -1.4197765120257E-01
(PID.TID 0000.0001) %MON dynstat_vvel_mean            =   9.2018256084068E-08
(PID.TID 0000.0001) %MON dynstat_vvel_sd              =   5.0522665103577E-02
(PID.TID 0000.0001) %MON dynstat_vvel_del2            =   3.6914485452609E-05
(PID.TID 0000.0001) %MON dynstat_wvel_max             =   1.3698468608782E-08
(PID.TID 0000.0001) %MON dynstat_wvel_min             =  -5.4062939839787E-09
(PID.TID 0000.0001) %MON dynstat_wvel_mean            =  -9.5998974656039E-21
(PID.TID 0000.0001) %MON dynstat_wvel_sd              =   4.6341111050043E-09
(PID.TID 0000.0001) %MON dynstat_wvel_del2            =   1.3348836474373E-12
(PID.TID 0000.0001) %MON dynstat_theta_max            =   2.0000000000000E+01
(PID.TID 0000.0001) %MON dynstat_theta_min            =   2.0000000000000E+01
(PID.TID 0000.0001) %MON dynstat_theta_mean           =   2.0000000000000E+01
(PID.TID 0000.0001) %MON dynstat_theta_sd             =   3.8014036363165E-13
(PID.TID 0000.0001) %MON dynstat_theta_del2           =   0.0000000000000E+00
(PID.TID 0000.0001) %MON dynstat_salt_max             =   3.0000000000000E+01
(PID.TID 0000.0001) %MON dynstat_salt_min             =   3.0000000000000E+01
(PID.TID 0000.0001) %MON dynstat_salt_mean            =   2.9999999999999E+01
(PID.TID 0000.0001) %MON dynstat_salt_sd              =   5.5777604757167E-13
(PID.TID 0000.0001) %MON dynstat_salt_del2            =   0.0000000000000E+00
(PID.TID 0000.0001) %MON trAdv_CFL_u_max              =   1.0053815407977E-02
(PID.TID 0000.0001) %MON trAdv_CFL_v_max              =   8.5072582682668E-03
(PID.TID 0000.0001) %MON trAdv_CFL_w_max              =   3.6120456505912E-09
(PID.TID 0000.0001) %MON advcfl_uvel_max              =   1.0054846928656E-02
(PID.TID 0000.0001) %MON advcfl_vvel_max              =   8.5186590721540E-03
(PID.TID 0000.0001) %MON advcfl_wvel_max              =   6.5752649322152E-09
(PID.TID 0000.0001) %MON advcfl_W_hf_max              =   0.0000000000000E+00
(PID.TID 0000.0001) %MON pe_b_mean                    =   1.8651710124169E-05
(PID.TID 0000.0001) %MON ke_max                       =   1.4067182781440E-02
(PID.TID 0000.0001) %MON ke_mean                      =   2.7382778537607E-03
(PID.TID 0000.0001) %MON ke_vol                       =   6.8893493896486E+15
(PID.TID 0000.0001) %MON vort_r_min                   =  -1.0327853950322E-06
(PID.TID 0000.0001) %MON vort_r_max                   =   3.5996917055475E-06
(PID.TID 0000.0001) %MON vort_a_mean                  =   1.0600000000000E-04
(PID.TID 0000.0001) %MON vort_a_sd                    =   3.5741993069990E-06
(PID.TID 0000.0001) %MON vort_p_mean                  =   1.1652272308690E-04
(PID.TID 0000.0001) %MON vort_p_sd                    =   4.1791802825558E-05
(PID.TID 0000.0001) %MON surfExpan_theta_mean         =  -1.9197664692506E-19
(PID.TID 0000.0001) %MON surfExpan_salt_mean          =  -2.8796497038760E-19
(PID.TID 0000.0001) // =======================================================
(PID.TID 0000.0001) // End MONITOR dynamic field statistics
(PID.TID 0000.0001) // =======================================================
 cg2d: Sum(rhs),rhsMax =  -7.04393275650792E-03  2.19283215385698E-01
 cg2d: Sum(rhs),rhsMax =  -7.04429969156527E-03  2.19288573825404E-01
 cg2d: Sum(rhs),rhsMax =  -7.04466635639993E-03  2.19293933906442E-01
 cg2d: Sum(rhs),rhsMax =  -7.04503274685804E-03  2.19299295628128E-01
 cg2d: Sum(rhs),rhsMax =  -7.04539885762070E-03  2.19304658989755E-01
 cg2d: Sum(rhs),rhsMax =  -7.04576468387182E-03  2.19310023990621E-01
 cg2d: Sum(rhs),rhsMax =  -7.04613022134283E-03  2.19315390630002E-01
 cg2d: Sum(rhs),rhsMax =  -7.04649546596890E-03  2.19320758907174E-01
 cg2d: Sum(rhs),rhsMax =  -7.04686041134593E-03  2.19326128821401E-01
 cg2d: Sum(rhs),rhsMax =  -7.04722505372534E-03  2.19331500371938E-01
 cg2d: Sum(rhs),rhsMax =  -7.04758938865828E-03  2.19336873558022E-01
 cg2d: Sum(rhs),rhsMax =  -7.04795341175315E-03  2.19342248378896E-01
 cg2d: Sum(rhs),rhsMax =  -7.04831711736302E-03  2.19347624833787E-01
 cg2d: Sum(rhs),rhsMax =  -7.04868050149782E-03  2.19353002921905E-01
 cg2d: Sum(rhs),rhsMax =  -7.04904355939618E-03  2.19358382642471E-01
 cg2d: Sum(rhs),rhsMax =  -7.04940628662428E-03  2.19363763994669E-01
 cg2d: Sum(rhs),rhsMax =  -7.04976867826453E-03  2.19369146977699E-01
 cg2d: Sum(rhs),rhsMax =  -7.05013073006678E-03  2.19374531590739E-01
 cg2d: Sum(rhs),rhsMax =  -7.05049243738030E-03  2.19379917832951E-01
 cg2d: Sum(rhs),rhsMax =  -7.05085379543139E-03  2.19385305703512E-01
 cg2d: Sum(rhs),rhsMax =  -7.05121480021512E-03  2.19390695201565E-01
 cg2d: Sum(rhs),rhsMax =  -7.05157544718967E-03  2.19396086326257E-01
 cg2d: Sum(rhs),rhsMax =  -7.05193573154857E-03  2.19401479076713E-01
 cg2d: Sum(rhs),rhsMax =  -7.05229564900868E-03  2.19406873452078E-01
 cg2d: Sum(rhs),rhsMax =  -7.05265519502409E-03  2.19412269451447E-01
 cg2d: Sum(rhs),rhsMax =  -7.05301436512518E-03  2.19417667073937E-01
 cg2d: Sum(rhs),rhsMax =  -7.05337315519233E-03  2.19423066318637E-01
 cg2d: Sum(rhs),rhsMax =  -7.05373156029986E-03  2.19428467184651E-01
 cg2d: Sum(rhs),rhsMax =  -7.05408957627936E-03  2.19433869671045E-01
 cg2d: Sum(rhs),rhsMax =  -7.05444719878027E-03  2.19439273776894E-01
 cg2d: Sum(rhs),rhsMax =  -7.05480442398779E-03  2.19444679501254E-01
 cg2d: Sum(rhs),rhsMax =  -7.05516124670862E-03  2.19450086843181E-01
 cg2d: Sum(rhs),rhsMax =  -7.05551766319423E-03  2.19455495801718E-01
 cg2d: Sum(rhs),rhsMax =  -7.05587366876855E-03  2.19460906375892E-01
 cg2d: Sum(rhs),rhsMax =  -7.05622925971075E-03  2.19466318564733E-01
 cg2d: Sum(rhs),rhsMax =  -7.05658443140408E-03  2.19471732367258E-01
 cg2d: Sum(rhs),rhsMax =  -7.05693917940245E-03  2.19477147782462E-01
 cg2d: Sum(rhs),rhsMax =  -7.05729349977017E-03  2.19482564809352E-01
 cg2d: Sum(rhs),rhsMax =  -7.05764738817685E-03  2.19487983446911E-01
 cg2d: Sum(rhs),rhsMax =  -7.05800084094472E-03  2.19493403694121E-01
 cg2d: Sum(rhs),rhsMax =  -7.05835385304444E-03  2.19498825549944E-01
 cg2d: Sum(rhs),rhsMax =  -7.05870642073105E-03  2.19504249013348E-01
 cg2d: Sum(rhs),rhsMax =  -7.05905854011885E-03  2.19509674083279E-01
 cg2d: Sum(rhs),rhsMax =  -7.05941020698294E-03  2.19515100758679E-01
 cg2d: Sum(rhs),rhsMax =  -7.05976141655813E-03  2.19520529038480E-01
 cg2d: Sum(rhs),rhsMax =  -7.06011216574253E-03  2.19525958921607E-01
 cg2d: Sum(rhs),rhsMax =  -7.06046245075520E-03  2.19531390406976E-01
 cg2d: Sum(rhs),rhsMax =  -7.06081226632316E-03  2.19536823493494E-01
 cg2d: Sum(rhs),rhsMax =  -7.06116160905980E-03  2.19542258180053E-01
 cg2d: Sum(rhs),rhsMax =  -7.06151047504020E-03  2.19547694465542E-01
 cg2d: Sum(rhs),rhsMax =  -7.06185886022857E-03  2.19553132348835E-01
 cg2d: Sum(rhs),rhsMax =  -7.06220676090297E-03  2.19558571828810E-01
 cg2d: Sum(rhs),rhsMax =  -7.06255417246168E-03  2.19564012904318E-01
 cg2d: Sum(rhs),rhsMax =  -7.06290109195194E-03  2.19569455574211E-01
 cg2d: Sum(rhs),rhsMax =  -7.06324751537657E-03  2.19574899837338E-01
 cg2d: Sum(rhs),rhsMax =  -7.06359343812644E-03  2.19580345692523E-01
 cg2d: Sum(rhs),rhsMax =  -7.06393885744563E-03  2.19585793138597E-01
 cg2d: Sum(rhs),rhsMax =  -7.06428376809958E-03  2.19591242174368E-01
 cg2d: Sum(rhs),rhsMax =  -7.06462816743404E-03  2.19596692798653E-01
 cg2d: Sum(rhs),rhsMax =  -7.06497205140569E-03  2.19602145010233E-01
 cg2d: Sum(rhs),rhsMax =  -7.06531541636994E-03  2.19607598807904E-01
 cg2d: Sum(rhs),rhsMax =  -7.06565825833435E-03  2.19613054190448E-01
 cg2d: Sum(rhs),rhsMax =  -7.06600057364203E-03  2.19618511156626E-01
 cg2d: Sum(rhs),rhsMax =  -7.06634235893390E-03  2.19623969705204E-01
 cg2d: Sum(rhs),rhsMax =  -7.06668361078690E-03  2.19629429834934E-01
 cg2d: Sum(rhs),rhsMax =  -7.06702432479888E-03  2.19634891544555E-01
 cg2d: Sum(rhs),rhsMax =  -7.06736449817581E-03  2.19640354832799E-01
 cg2d: Sum(rhs),rhsMax =  -7.06770412676051E-03  2.19645819698401E-01
 cg2d: Sum(rhs),rhsMax =  -7.06804320725243E-03  2.19651286140063E-01
 cg2d: Sum(rhs),rhsMax =  -7.06838173671899E-03  2.19656754156503E-01
 cg2d: Sum(rhs),rhsMax =  -7.06871971091631E-03  2.19662223746407E-01
 cg2d: Sum(rhs),rhsMax =  -7.06905712654536E-03  2.19667694908472E-01
(PID.TID 0000.0001)      cg2d_init_res =   3.76172500342044E-04
(PID.TID 0000.0001)      cg2d_iters(min,last) =      -1      70
(PID.TID 0000.0001)      cg2d_last_res =   9.70782251199724E-08
(PID.TID 0000.0001) // =======================================================
(PID.TID 0000.0001) // Begin MONITOR dynamic field statistics
(PID.TID 0000.0001) // =======================================================
(PID.TID 0000.0001) %MON time_tsnumber                =                 16776
(PID.TID 0000.0001) %MON time_secondsf                =   2.0131200000000E+07
(PID.TID 0000.0001) %MON dynstat_eta_max              =   3.5065677656763E-01
(PID.TID 0000.0001) %MON dynstat_eta_min              =  -1.1199600334706E-01
(PID.TID 0000.0001) %MON dynstat_eta_mean             =   7.7608021529811E-06
(PID.TID 0000.0001) %MON dynstat_eta_sd               =   1.3526381580715E-01
(PID.TID 0000.0001) %MON dynstat_eta_del2             =   3.4799866724891E-05
(PID.TID 0000.0001) %MON dynstat_uvel_max             =   1.6786805816597E-01
(PID.TID 0000.0001) %MON dynstat_uvel_min             =  -1.3135113994479E-01
(PID.TID 0000.0001) %MON dynstat_uvel_mean            =  -7.3711348276789E-08
(PID.TID 0000.0001) %MON dynstat_uvel_sd              =   5.5162747835036E-02
(PID.TID 0000.0001) %MON dynstat_uvel_del2            =   7.5101661379336E-05
(PID.TID 0000.0001) %MON dynstat_vvel_max             =   1.1480871041328E-01
(PID.TID 0000.0001) %MON dynstat_vvel_min             =  -1.4234332674057E-01
(PID.TID 0000.0001) %MON dynstat_vvel_mean            =   9.9389489080435E-08
(PID.TID 0000.0001) %MON dynstat_vvel_sd              =   5.0669260877193E-02
(PID.TID 0000.0001) %MON dynstat_vvel_del2            =   3.6928276504141E-05
(PID.TID 0000.0001) %MON dynstat_wvel_max             =   1.3686620923690E-08
(PID.TID 0000.0001) %MON dynstat_wvel_min             =  -5.4601306508994E-09
(PID.TID 0000.0001) %MON dynstat_wvel_mean            =  -6.6712767774233E-21
(PID.TID 0000.0001) %MON dynstat_wvel_sd              =   4.6163956009337E-09
(PID.TID 0000.0001) %MON dynstat_wvel_del2            =   1.3256547291062E-12
(PID.TID 0000.0001) %MON dynstat_theta_max            =   2.0000000000000E+01
(PID.TID 0000.0001) %MON dynstat_theta_min            =   2.0000000000000E+01
(PID.TID 0000.0001) %MON dynstat_theta_mean           =   2.0000000000000E+01
(PID.TID 0000.0001) %MON dynstat_theta_sd             =   3.8014036363165E-13
(PID.TID 0000.0001) %MON dynstat_theta_del2           =   0.0000000000000E+00
(PID.TID 0000.0001) %MON dynstat_salt_max             =   3.0000000000000E+01
(PID.TID 0000.0001) %MON dynstat_salt_min             =   3.0000000000000E+01
(PID.TID 0000.0001) %MON dynstat_salt_mean            =   2.9999999999999E+01
(PID.TID 0000.0001) %MON dynstat_salt_sd              =   5.5777604757167E-13
(PID.TID 0000.0001) %MON dynstat_salt_del2            =   0.0000000000000E+00
(PID.TID 0000.0001) %MON trAdv_CFL_u_max              =   1.0071045728385E-02
(PID.TID 0000.0001) %MON trAdv_CFL_v_max              =   8.5291775218300E-03
(PID.TID 0000.0001) %MON trAdv_CFL_w_max              =   3.6016001435811E-09
(PID.TID 0000.0001) %MON advcfl_uvel_max              =   1.0072083489958E-02
(PID.TID 0000.0001) %MON advcfl_vvel_max              =   8.5405996044341E-03
(PID.TID 0000.0001) %MON advcfl_wvel_max              =   6.5695780433714E-09
(PID.TID 0000.0001) %MON advcfl_W_hf_max              =   0.0000000000000E+00
(PID.TID 0000.0001) %MON pe_b_mean                    =   1.8758001421462E-05
(PID.TID 0000.0001) %MON ke_max                       =   1.4115658953978E-02
(PID.TID 0000.0001) %MON ke_mean                      =   2.7535685217101E-03
(PID.TID 0000.0001) %MON ke_vol                       =   6.8893493896486E+15
(PID.TID 0000.0001) %MON vort_r_min                   =  -1.0367700398174E-06
(PID.TID 0000.0001) %MON vort_r_max                   =   3.6054431229095E-06
(PID.TID 0000.0001) %MON vort_a_mean                  =   1.0600000000000E-04
(PID.TID 0000.0001) %MON vort_a_sd                    =   3.5744193013652E-06
(PID.TID 0000.0001) %MON vort_p_mean                  =   1.1652272308690E-04
(PID.TID 0000.0001) %MON vort_p_sd                    =   4.1791880367261E-05
(PID.TID 0000.0001) %MON surfExpan_theta_mean         =  -1.3341592522112E-19
(PID.TID 0000.0001) %MON surfExpan_salt_mean          =  -2.0012388783168E-19
(PID.TID 0000.0001) // =======================================================
(PID.TID 0000.0001) // End MONITOR dynamic field statistics
(PID.TID 0000.0001) // =======================================================
 cg2d: Sum(rhs),rhsMax =  -7.06939398053145E-03  2.19673167641380E-01
 cg2d: Sum(rhs),rhsMax =  -7.06973026910374E-03  2.19678641943789E-01
 cg2d: Sum(rhs),rhsMax =  -7.07006598908990E-03  2.19684117814372E-01
 cg2d: Sum(rhs),rhsMax =  -7.07040113690822E-03  2.19689595251781E-01
 cg2d: Sum(rhs),rhsMax =  -7.07073570938605E-03  2.19695074254655E-01
 cg2d: Sum(rhs),rhsMax =  -7.07106970356539E-03  2.19700554821632E-01
 cg2d: Sum(rhs),rhsMax =  -7.07140311581640E-03  2.19706036951336E-01
 cg2d: Sum(rhs),rhsMax =  -7.07173594321060E-03  2.19711520642391E-01
 cg2d: Sum(rhs),rhsMax =  -7.07206818226172E-03  2.19717005893393E-01
 cg2d: Sum(rhs),rhsMax =  -7.07239983001470E-03  2.19722492702946E-01
 cg2d: Sum(rhs),rhsMax =  -7.07273088290225E-03  2.19727981069644E-01
 cg2d: Sum(rhs),rhsMax =  -7.07306133859960E-03  2.19733470992066E-01
 cg2d: Sum(rhs),rhsMax =  -7.07339119350523E-03  2.19738962468789E-01
 cg2d: Sum(rhs),rhsMax =  -7.07372044458387E-03  2.19744455498369E-01
 cg2d: Sum(rhs),rhsMax =  -7.07404908900855E-03  2.19749950079367E-01
 cg2d: Sum(rhs),rhsMax =  -7.07437712398313E-03  2.19755446210320E-01
 cg2d: Sum(rhs),rhsMax =  -7.07470454625784E-03  2.19760943889776E-01
 cg2d: Sum(rhs),rhsMax =  -7.07503135274425E-03  2.19766443116255E-01
 cg2d: Sum(rhs),rhsMax =  -7.07535754132224E-03  2.19771943888284E-01
 cg2d: Sum(rhs),rhsMax =  -7.07568310861026E-03  2.19777446204369E-01
 cg2d: Sum(rhs),rhsMax =  -7.07600805129780E-03  2.19782950063005E-01
 cg2d: Sum(rhs),rhsMax =  -7.07633236765230E-03  2.19788455462698E-01
 cg2d: Sum(rhs),rhsMax =  -7.07665605391767E-03  2.19793962401920E-01
 cg2d: Sum(rhs),rhsMax =  -7.07697910873749E-03  2.19799470879158E-01
 cg2d: Sum(rhs),rhsMax =  -7.07730152824078E-03  2.19804980892864E-01
 cg2d: Sum(rhs),rhsMax =  -7.07762331066389E-03  2.19810492441514E-01
 cg2d: Sum(rhs),rhsMax =  -7.07794445231626E-03  2.19816005523541E-01
 cg2d: Sum(rhs),rhsMax =  -7.07826495176455E-03  2.19821520137387E-01
 cg2d: Sum(rhs),rhsMax =  -7.07858480587637E-03  2.19827036281488E-01
 cg2d: Sum(rhs),rhsMax =  -7.07890401205939E-03  2.19832553954271E-01
 cg2d: Sum(rhs),rhsMax =  -7.07922256831050E-03  2.19838073154142E-01
 cg2d: Sum(rhs),rhsMax =  -7.07954047225318E-03  2.19843593879504E-01
 cg2d: Sum(rhs),rhsMax =  -7.07985772147336E-03  2.19849116128759E-01
 cg2d: Sum(rhs),rhsMax =  -7.08017431278035E-03  2.19854639900288E-01
 cg2d: Sum(rhs),rhsMax =  -7.08049024527416E-03  2.19860165192481E-01
 cg2d: Sum(rhs),rhsMax =  -7.08080551541163E-03  2.19865692003697E-01
 cg2d: Sum(rhs),rhsMax =  -7.08112012188937E-03  2.19871220332303E-01
 cg2d: Sum(rhs),rhsMax =  -7.08143406237721E-03  2.19876750176643E-01
 cg2d: Sum(rhs),rhsMax =  -7.08174733429751E-03  2.19882281535071E-01
 cg2d: Sum(rhs),rhsMax =  -7.08205993604669E-03  2.19887814405919E-01
 cg2d: Sum(rhs),rhsMax =  -7.08237186566395E-03  2.19893348787512E-01
 cg2d: Sum(rhs),rhsMax =  -7.08268312062130E-03  2.19898884678166E-01
 cg2d: Sum(rhs),rhsMax =  -7.08299369922761E-03  2.19904422076194E-01
 cg2d: Sum(rhs),rhsMax =  -7.08330359973341E-03  2.19909960979898E-01
 cg2d: Sum(rhs),rhsMax =  -7.08361282057092E-03  2.19915501387565E-01
 cg2d: Sum(rhs),rhsMax =  -7.08392135900383E-03  2.19921043297478E-01
 cg2d: Sum(rhs),rhsMax =  -7.08422921379604E-03  2.19926586707913E-01
 cg2d: Sum(rhs),rhsMax =  -7.08453638342339E-03  2.19932131617135E-01
 cg2d: Sum(rhs),rhsMax =  -7.08484286575494E-03  2.19937678023403E-01
 cg2d: Sum(rhs),rhsMax =  -7.08514865908737E-03  2.19943225924964E-01
 cg2d: Sum(rhs),rhsMax =  -7.08545376236126E-03  2.19948775320059E-01
 cg2d: Sum(rhs),rhsMax =  -7.08575817383143E-03  2.19954326206918E-01
 cg2d: Sum(rhs),rhsMax =  -7.08606189167926E-03  2.19959878583762E-01
 cg2d: Sum(rhs),rhsMax =  -7.08636491449322E-03  2.19965432448804E-01
 cg2d: Sum(rhs),rhsMax =  -7.08666724124551E-03  2.19970987800260E-01
 cg2d: Sum(rhs),rhsMax =  -7.08696887062263E-03  2.19976544636315E-01
 cg2d: Sum(rhs),rhsMax =  -7.08726980098885E-03  2.19982102955165E-01
 cg2d: Sum(rhs),rhsMax =  -7.08757003089034E-03  2.19987662754984E-01
 cg2d: Sum(rhs),rhsMax =  -7.08786955957150E-03  2.19993224033948E-01
 cg2d: Sum(rhs),rhsMax =  -7.08816838564626E-03  2.19998786790214E-01
 cg2d: Sum(rhs),rhsMax =  -7.08846650808159E-03  2.20004351021942E-01
 cg2d: Sum(rhs),rhsMax =  -7.08876392605503E-03  2.20009916727275E-01
 cg2d: Sum(rhs),rhsMax =  -7.08906063813169E-03  2.20015483904351E-01
 cg2d: Sum(rhs),rhsMax =  -7.08935664346050E-03  2.20021052551297E-01
 cg2d: Sum(rhs),rhsMax =  -7.08965194147900E-03  2.20026622666234E-01
 cg2d: Sum(rhs),rhsMax =  -7.08994653124118E-03  2.20032194247276E-01
 cg2d: Sum(rhs),rhsMax =  -7.09024041202929E-03  2.20037767292522E-01
 cg2d: Sum(rhs),rhsMax =  -7.09053358268642E-03  2.20043341800067E-01
 cg2d: Sum(rhs),rhsMax =  -7.09082604259428E-03  2.20048917768000E-01
 cg2d: Sum(rhs),rhsMax =  -7.09111779184101E-03  2.20054495194400E-01
 cg2d: Sum(rhs),rhsMax =  -7.09140882945165E-03  2.20060074077333E-01
 cg2d: Sum(rhs),rhsMax =  -7.09169915458357E-03  2.20065654414855E-01
(PID.TID 0000.0001)      cg2d_init_res =   3.74610069524462E-04
(PID.TID 0000.0001)      cg2d_iters(min,last) =      -1      70
(PID.TID 0000.0001)      cg2d_last_res =   9.64822269066330E-08
(PID.TID 0000.0001) // =======================================================
(PID.TID 0000.0001) // Begin MONITOR dynamic field statistics
(PID.TID 0000.0001) // =======================================================
(PID.TID 0000.0001) %MON time_tsnumber                =                 16848
(PID.TID 0000.0001) %MON time_secondsf                =   2.0217600000000E+07
(PID.TID 0000.0001) %MON dynstat_eta_max              =   3.5176307466727E-01
(PID.TID 0000.0001) %MON dynstat_eta_min              =  -1.1227263560187E-01
(PID.TID 0000.0001) %MON dynstat_eta_mean             =   7.7997150342984E-06
(PID.TID 0000.0001) %MON dynstat_eta_sd               =   1.3564634876183E-01
(PID.TID 0000.0001) %MON dynstat_eta_del2             =   3.4874618886042E-05
(PID.TID 0000.0001) %MON dynstat_uvel_max             =   1.6816146785195E-01
(PID.TID 0000.0001) %MON dynstat_uvel_min             =  -1.3174993002135E-01
(PID.TID 0000.0001) %MON dynstat_uvel_mean            =  -7.0899432948062E-08
(PID.TID 0000.0001) %MON dynstat_uvel_sd              =   5.5312771744168E-02
(PID.TID 0000.0001) %MON dynstat_uvel_del2            =   7.5156812499134E-05
(PID.TID 0000.0001) %MON dynstat_vvel_max             =   1.1523129183583E-01
(PID.TID 0000.0001) %MON dynstat_vvel_min             =  -1.4270085687206E-01
(PID.TID 0000.0001) %MON dynstat_vvel_mean            =   1.0639219695144E-07
(PID.TID 0000.0001) %MON dynstat_vvel_sd              =   5.0812905467696E-02
(PID.TID 0000.0001) %MON dynstat_vvel_del2            =   3.6946028128885E-05
(PID.TID 0000.0001) %MON dynstat_wvel_max             =   1.3651998146670E-08
(PID.TID 0000.0001) %MON dynstat_wvel_min             =  -5.5100570307695E-09
(PID.TID 0000.0001) %MON dynstat_wvel_mean            =  -4.3411268456516E-21
(PID.TID 0000.0001) %MON dynstat_wvel_sd              =   4.5964973772168E-09
(PID.TID 0000.0001) %MON dynstat_wvel_del2            =   1.3173744623546E-12
(PID.TID 0000.0001) %MON dynstat_theta_max            =   2.0000000000000E+01
(PID.TID 0000.0001) %MON dynstat_theta_min            =   2.0000000000000E+01
(PID.TID 0000.0001) %MON dynstat_theta_mean           =   2.0000000000000E+01
(PID.TID 0000.0001) %MON dynstat_theta_sd             =   3.8014036363165E-13
(PID.TID 0000.0001) %MON dynstat_theta_del2           =   0.0000000000000E+00
(PID.TID 0000.0001) %MON dynstat_salt_max             =   3.0000000000000E+01
(PID.TID 0000.0001) %MON dynstat_salt_min             =   3.0000000000000E+01
(PID.TID 0000.0001) %MON dynstat_salt_mean            =   2.9999999999999E+01
(PID.TID 0000.0001) %MON dynstat_salt_sd              =   5.5777604757167E-13
(PID.TID 0000.0001) %MON dynstat_salt_del2            =   0.0000000000000E+00
(PID.TID 0000.0001) %MON trAdv_CFL_u_max              =   1.0088643605084E-02
(PID.TID 0000.0001) %MON trAdv_CFL_v_max              =   8.5506076631248E-03
(PID.TID 0000.0001) %MON trAdv_CFL_w_max              =   3.5925730728527E-09
(PID.TID 0000.0001) %MON advcfl_uvel_max              =   1.0089688071117E-02
(PID.TID 0000.0001) %MON advcfl_vvel_max              =   8.5620514123236E-03
(PID.TID 0000.0001) %MON advcfl_wvel_max              =   6.5529591104016E-09
(PID.TID 0000.0001) %MON advcfl_W_hf_max              =   0.0000000000000E+00
(PID.TID 0000.0001) %MON pe_b_mean                    =   1.8864248611052E-05
(PID.TID 0000.0001) %MON ke_max                       =   1.4165194776578E-02
(PID.TID 0000.0001) %MON ke_mean                      =   2.7688577735240E-03
(PID.TID 0000.0001) %MON ke_vol                       =   6.8893493896486E+15
(PID.TID 0000.0001) %MON vort_r_min                   =  -1.0406232422945E-06
(PID.TID 0000.0001) %MON vort_r_max                   =   3.6112979836908E-06
(PID.TID 0000.0001) %MON vort_a_mean                  =   1.0600000000000E-04
(PID.TID 0000.0001) %MON vort_a_sd                    =   3.5746419265244E-06
(PID.TID 0000.0001) %MON vort_p_mean                  =   1.1652272308690E-04
(PID.TID 0000.0001) %MON vort_p_sd                    =   4.1791958177647E-05
(PID.TID 0000.0001) %MON surfExpan_theta_mean         =  -8.6798637413368E-20
(PID.TID 0000.0001) %MON surfExpan_salt_mean          =  -1.3019795612005E-19
(PID.TID 0000.0001) // =======================================================
(PID.TID 0000.0001) // End MONITOR dynamic field statistics
(PID.TID 0000.0001) // =======================================================
 cg2d: Sum(rhs),rhsMax =  -7.09198876680048E-03  2.20071236205030E-01
 cg2d: Sum(rhs),rhsMax =  -7.09227766625447E-03  2.20076819445895E-01
 cg2d: Sum(rhs),rhsMax =  -7.09256585240895E-03  2.20082404135486E-01
 cg2d: Sum(rhs),rhsMax =  -7.09285332478580E-03  2.20087990271830E-01
 cg2d: Sum(rhs),rhsMax =  -7.09314008310248E-03  2.20093577852949E-01
 cg2d: Sum(rhs),rhsMax =  -7.09342612787824E-03  2.20099166876846E-01
 cg2d: Sum(rhs),rhsMax =  -7.09371145841687E-03  2.20104757341534E-01
 cg2d: Sum(rhs),rhsMax =  -7.09399607486357E-03  2.20110349244994E-01
 cg2d: Sum(rhs),rhsMax =  -7.09427997743407E-03  2.20115942585220E-01
 cg2d: Sum(rhs),rhsMax =  -7.09456316564143E-03  2.20121537360192E-01
 cg2d: Sum(rhs),rhsMax =  -7.09484564005241E-03  2.20127133567867E-01
 cg2d: Sum(rhs),rhsMax =  -7.09512740128303E-03  2.20132731206213E-01
 cg2d: Sum(rhs),rhsMax =  -7.09540844896995E-03  2.20138330273183E-01
 cg2d: Sum(rhs),rhsMax =  -7.09568878388238E-03  2.20143930766714E-01
 cg2d: Sum(rhs),rhsMax =  -7.09596840619314E-03  2.20149532684748E-01
 cg2d: Sum(rhs),rhsMax =  -7.09624731661927E-03  2.20155136025208E-01
 cg2d: Sum(rhs),rhsMax =  -7.09652551552319E-03  2.20160740786016E-01
 cg2d: Sum(rhs),rhsMax =  -7.09680300345462E-03  2.20166346965080E-01
 cg2d: Sum(rhs),rhsMax =  -7.09707978137919E-03  2.20171954560298E-01
 cg2d: Sum(rhs),rhsMax =  -7.09735584939195E-03  2.20177563569574E-01
 cg2d: Sum(rhs),rhsMax =  -7.09763120939942E-03  2.20183173990788E-01
 cg2d: Sum(rhs),rhsMax =  -7.09790586154795E-03  2.20188785821817E-01
 cg2d: Sum(rhs),rhsMax =  -7.09817980694962E-03  2.20194399060529E-01
 cg2d: Sum(rhs),rhsMax =  -7.09845304667238E-03  2.20200013704790E-01
 cg2d: Sum(rhs),rhsMax =  -7.09872558177711E-03  2.20205629752449E-01
 cg2d: Sum(rhs),rhsMax =  -7.09899741308239E-03  2.20211247201351E-01
 cg2d: Sum(rhs),rhsMax =  -7.09926854265212E-03  2.20216866049333E-01
 cg2d: Sum(rhs),rhsMax =  -7.09953897114863E-03  2.20222486294220E-01
 cg2d: Sum(rhs),rhsMax =  -7.09980870038718E-03  2.20228107933837E-01
 cg2d: Sum(rhs),rhsMax =  -7.10007773112574E-03  2.20233730965995E-01
 cg2d: Sum(rhs),rhsMax =  -7.10034606579862E-03  2.20239355388497E-01
 cg2d: Sum(rhs),rhsMax =  -7.10061370568191E-03  2.20244981199137E-01
 cg2d: Sum(rhs),rhsMax =  -7.10088065197939E-03  2.20250608395701E-01
 cg2d: Sum(rhs),rhsMax =  -7.10114690703706E-03  2.20256236975977E-01
 cg2d: Sum(rhs),rhsMax =  -7.10141247230145E-03  2.20261866937725E-01
 cg2d: Sum(rhs),rhsMax =  -7.10167734960663E-03  2.20267498278714E-01
 cg2d: Sum(rhs),rhsMax =  -7.10194154114911E-03  2.20273130996697E-01
 cg2d: Sum(rhs),rhsMax =  -7.10220504942919E-03  2.20278765089424E-01
 cg2d: Sum(rhs),rhsMax =  -7.10246787618014E-03  2.20284400554636E-01
 cg2d: Sum(rhs),rhsMax =  -7.10273002348502E-03  2.20290037390054E-01
 cg2d: Sum(rhs),rhsMax =  -7.10299149331274E-03  2.20295675593410E-01
 cg2d: Sum(rhs),rhsMax =  -7.10325228913143E-03  2.20301315162415E-01
 cg2d: Sum(rhs),rhsMax =  -7.10351241209206E-03  2.20306956094776E-01
 cg2d: Sum(rhs),rhsMax =  -7.10377186603856E-03  2.20312598388191E-01
 cg2d: Sum(rhs),rhsMax =  -7.10403065241252E-03  2.20318242040352E-01
 cg2d: Sum(rhs),rhsMax =  -7.10428877461951E-03  2.20323887048939E-01
 cg2d: Sum(rhs),rhsMax =  -7.10454623529884E-03  2.20329533411635E-01
 cg2d: Sum(rhs),rhsMax =  -7.10480303736964E-03  2.20335181126098E-01
 cg2d: Sum(rhs),rhsMax =  -7.10505918385994E-03  2.20340830189985E-01
 cg2d: Sum(rhs),rhsMax =  -7.10531467720664E-03  2.20346480600958E-01
 cg2d: Sum(rhs),rhsMax =  -7.10556952078739E-03  2.20352132356646E-01
 cg2d: Sum(rhs),rhsMax =  -7.10582371782807E-03  2.20357785454695E-01
 cg2d: Sum(rhs),rhsMax =  -7.10607727201731E-03  2.20363439892727E-01
 cg2d: Sum(rhs),rhsMax =  -7.10633018611664E-03  2.20369095668363E-01
 cg2d: Sum(rhs),rhsMax =  -7.10658246356723E-03  2.20374752779215E-01
 cg2d: Sum(rhs),rhsMax =  -7.10683410810720E-03  2.20380411222880E-01
 cg2d: Sum(rhs),rhsMax =  -7.10708512355099E-03  2.20386070996960E-01
 cg2d: Sum(rhs),rhsMax =  -7.10733551339976E-03  2.20391732099039E-01
 cg2d: Sum(rhs),rhsMax =  -7.10758528136714E-03  2.20397394526701E-01
 cg2d: Sum(rhs),rhsMax =  -7.10783443142508E-03  2.20403058277510E-01
 cg2d: Sum(rhs),rhsMax =  -7.10808296780559E-03  2.20408723349041E-01
 cg2d: Sum(rhs),rhsMax =  -7.10833089374662E-03  2.20414389738843E-01
 cg2d: Sum(rhs),rhsMax =  -7.10857821403845E-03  2.20420057444462E-01
 cg2d: Sum(rhs),rhsMax =  -7.10882493250546E-03  2.20425726463445E-01
 cg2d: Sum(rhs),rhsMax =  -7.10907105399124E-03  2.20431396793317E-01
 cg2d: Sum(rhs),rhsMax =  -7.10931658218189E-03  2.20437068431618E-01
 cg2d: Sum(rhs),rhsMax =  -7.10956152194092E-03  2.20442741375847E-01
 cg2d: Sum(rhs),rhsMax =  -7.10980587803692E-03  2.20448415623520E-01
 cg2d: Sum(rhs),rhsMax =  -7.11004965468219E-03  2.20454091172141E-01
 cg2d: Sum(rhs),rhsMax =  -7.11029285668809E-03  2.20459768019207E-01
 cg2d: Sum(rhs),rhsMax =  -7.11053548893568E-03  2.20465446162201E-01
 cg2d: Sum(rhs),rhsMax =  -7.11077755664942E-03  2.20471125598594E-01
(PID.TID 0000.0001)      cg2d_init_res =   3.73014281015491E-04
(PID.TID 0000.0001)      cg2d_iters(min,last) =      -1      70
(PID.TID 0000.0001)      cg2d_last_res =   9.59821568025042E-08
(PID.TID 0000.0001) // =======================================================
(PID.TID 0000.0001) // Begin MONITOR dynamic field statistics
(PID.TID 0000.0001) // =======================================================
(PID.TID 0000.0001) %MON time_tsnumber                =                 16920
(PID.TID 0000.0001) %MON time_secondsf                =   2.0304000000000E+07
(PID.TID 0000.0001) %MON dynstat_eta_max              =   3.5286619328365E-01
(PID.TID 0000.0001) %MON dynstat_eta_min              =  -1.1253831364504E-01
(PID.TID 0000.0001) %MON dynstat_eta_mean             =   7.8350571050492E-06
(PID.TID 0000.0001) %MON dynstat_eta_sd               =   1.3602745163683E-01
(PID.TID 0000.0001) %MON dynstat_eta_del2             =   3.4949706868474E-05
(PID.TID 0000.0001) %MON dynstat_uvel_max             =   1.6846144388488E-01
(PID.TID 0000.0001) %MON dynstat_uvel_min             =  -1.3216073521660E-01
(PID.TID 0000.0001) %MON dynstat_uvel_mean            =  -6.6394260656199E-08
(PID.TID 0000.0001) %MON dynstat_uvel_sd              =   5.5464514924646E-02
(PID.TID 0000.0001) %MON dynstat_uvel_del2            =   7.5213609233387E-05
(PID.TID 0000.0001) %MON dynstat_vvel_max             =   1.1564332180231E-01
(PID.TID 0000.0001) %MON dynstat_vvel_min             =  -1.4305151369733E-01
(PID.TID 0000.0001) %MON dynstat_vvel_mean            =   1.1278684030823E-07
(PID.TID 0000.0001) %MON dynstat_vvel_sd              =   5.0953716436317E-02
(PID.TID 0000.0001) %MON dynstat_vvel_del2            =   3.6967104766398E-05
(PID.TID 0000.0001) %MON dynstat_wvel_max             =   1.3594615263864E-08
(PID.TID 0000.0001) %MON dynstat_wvel_min             =  -5.5571884734672E-09
(PID.TID 0000.0001) %MON dynstat_wvel_mean            =   1.8729498505208E-21
(PID.TID 0000.0001) %MON dynstat_wvel_sd              =   4.5747359914622E-09
(PID.TID 0000.0001) %MON dynstat_wvel_del2            =   1.3100543357606E-12
(PID.TID 0000.0001) %MON dynstat_theta_max            =   2.0000000000000E+01
(PID.TID 0000.0001) %MON dynstat_theta_min            =   2.0000000000000E+01
(PID.TID 0000.0001) %MON dynstat_theta_mean           =   2.0000000000000E+01
(PID.TID 0000.0001) %MON dynstat_theta_sd             =   3.8014036363165E-13
(PID.TID 0000.0001) %MON dynstat_theta_del2           =   0.0000000000000E+00
(PID.TID 0000.0001) %MON dynstat_salt_max             =   3.0000000000000E+01
(PID.TID 0000.0001) %MON dynstat_salt_min             =   3.0000000000000E+01
(PID.TID 0000.0001) %MON dynstat_salt_mean            =   2.9999999999999E+01
(PID.TID 0000.0001) %MON dynstat_salt_sd              =   5.5777604757167E-13
(PID.TID 0000.0001) %MON dynstat_salt_del2            =   0.0000000000000E+00
(PID.TID 0000.0001) %MON trAdv_CFL_u_max              =   1.0106635144025E-02
(PID.TID 0000.0001) %MON trAdv_CFL_v_max              =   8.5716248575051E-03
(PID.TID 0000.0001) %MON trAdv_CFL_w_max              =   3.5775556320984E-09
(PID.TID 0000.0001) %MON advcfl_uvel_max              =   1.0107686633093E-02
(PID.TID 0000.0001) %MON advcfl_vvel_max              =   8.5830908218396E-03
(PID.TID 0000.0001) %MON advcfl_wvel_max              =   6.5254153266549E-09
(PID.TID 0000.0001) %MON advcfl_W_hf_max              =   0.0000000000000E+00
(PID.TID 0000.0001) %MON pe_b_mean                    =   1.8970396968671E-05
(PID.TID 0000.0001) %MON ke_max                       =   1.4215876433062E-02
(PID.TID 0000.0001) %MON ke_mean                      =   2.7841412440731E-03
(PID.TID 0000.0001) %MON ke_vol                       =   6.8893493896486E+15
(PID.TID 0000.0001) %MON vort_r_min                   =  -1.0443509594444E-06
(PID.TID 0000.0001) %MON vort_r_max                   =   3.6172673216597E-06
(PID.TID 0000.0001) %MON vort_a_mean                  =   1.0600000000000E-04
(PID.TID 0000.0001) %MON vort_a_sd                    =   3.5748670022425E-06
(PID.TID 0000.0001) %MON vort_p_mean                  =   1.1652272308690E-04
(PID.TID 0000.0001) %MON vort_p_sd                    =   4.1792035689544E-05
(PID.TID 0000.0001) %MON surfExpan_theta_mean         =   3.7485076770988E-20
(PID.TID 0000.0001) %MON surfExpan_salt_mean          =   5.6212456911453E-20
(PID.TID 0000.0001) // =======================================================
(PID.TID 0000.0001) // End MONITOR dynamic field statistics
(PID.TID 0000.0001) // =======================================================
 cg2d: Sum(rhs),rhsMax =  -7.11101906416103E-03  2.20476806325870E-01
 cg2d: Sum(rhs),rhsMax =  -7.11126001714790E-03  2.20482488341481E-01
 cg2d: Sum(rhs),rhsMax =  -7.11150042029019E-03  2.20488171642891E-01
 cg2d: Sum(rhs),rhsMax =  -7.11174027951537E-03  2.20493856227542E-01
 cg2d: Sum(rhs),rhsMax =  -7.11197959964609E-03  2.20499542092878E-01
 cg2d: Sum(rhs),rhsMax =  -7.11221838638090E-03  2.20505229236332E-01
 cg2d: Sum(rhs),rhsMax =  -7.11245664547081E-03  2.20510917655322E-01
 cg2d: Sum(rhs),rhsMax =  -7.11269438226515E-03  2.20516607347272E-01
 cg2d: Sum(rhs),rhsMax =  -7.11293160266447E-03  2.20522298309587E-01
 cg2d: Sum(rhs),rhsMax =  -7.11316831233438E-03  2.20527990539673E-01
 cg2d: Sum(rhs),rhsMax =  -7.11340451686560E-03  2.20533684034924E-01
 cg2d: Sum(rhs),rhsMax =  -7.11364022238918E-03  2.20539378792723E-01
 cg2d: Sum(rhs),rhsMax =  -7.11387543587777E-03  2.20545074810452E-01
 cg2d: Sum(rhs),rhsMax =  -7.11411016224457E-03  2.20550772085487E-01
 cg2d: Sum(rhs),rhsMax =  -7.11434440835301E-03  2.20556470615183E-01
 cg2d: Sum(rhs),rhsMax =  -7.11457818026762E-03  2.20562170396905E-01
 cg2d: Sum(rhs),rhsMax =  -7.11481148508171E-03  2.20567871428000E-01
 cg2d: Sum(rhs),rhsMax =  -7.11504432875239E-03  2.20573573705804E-01
 cg2d: Sum(rhs),rhsMax =  -7.11527671753343E-03  2.20579277227658E-01
 cg2d: Sum(rhs),rhsMax =  -7.11550865878802E-03  2.20584981990885E-01
 cg2d: Sum(rhs),rhsMax =  -7.11574015923256E-03  2.20590687992815E-01
 cg2d: Sum(rhs),rhsMax =  -7.11597122540483E-03  2.20596395230740E-01
 cg2d: Sum(rhs),rhsMax =  -7.11620186466079E-03  2.20602103701976E-01
 cg2d: Sum(rhs),rhsMax =  -7.11643208423708E-03  2.20607813403820E-01
 cg2d: Sum(rhs),rhsMax =  -7.11666189017842E-03  2.20613524333564E-01
 cg2d: Sum(rhs),rhsMax =  -7.11689129091593E-03  2.20619236488481E-01
 cg2d: Sum(rhs),rhsMax =  -7.11712029351470E-03  2.20624949865857E-01
 cg2d: Sum(rhs),rhsMax =  -7.11734890506467E-03  2.20630664462949E-01
 cg2d: Sum(rhs),rhsMax =  -7.11757713316736E-03  2.20636380277020E-01
 cg2d: Sum(rhs),rhsMax =  -7.11780498547191E-03  2.20642097305324E-01
 cg2d: Sum(rhs),rhsMax =  -7.11803246951751E-03  2.20647815545114E-01
 cg2d: Sum(rhs),rhsMax =  -7.11825959299799E-03  2.20653534993611E-01
 cg2d: Sum(rhs),rhsMax =  -7.11848636374084E-03  2.20659255648061E-01
 cg2d: Sum(rhs),rhsMax =  -7.11871278989212E-03  2.20664977505679E-01
 cg2d: Sum(rhs),rhsMax =  -7.11893887942125E-03  2.20670700563677E-01
 cg2d: Sum(rhs),rhsMax =  -7.11916464028725E-03  2.20676424819273E-01
 cg2d: Sum(rhs),rhsMax =  -7.11939008042180E-03  2.20682150269672E-01
 cg2d: Sum(rhs),rhsMax =  -7.11961520885255E-03  2.20687876912053E-01
 cg2d: Sum(rhs),rhsMax =  -7.11984003303542E-03  2.20693604743615E-01
 cg2d: Sum(rhs),rhsMax =  -7.12006456202642E-03  2.20699333761534E-01
 cg2d: Sum(rhs),rhsMax =  -7.12028880385133E-03  2.20705063962978E-01
 cg2d: Sum(rhs),rhsMax =  -7.12051276714602E-03  2.20710795345123E-01
 cg2d: Sum(rhs),rhsMax =  -7.12073646087158E-03  2.20716527905121E-01
 cg2d: Sum(rhs),rhsMax =  -7.12095989377053E-03  2.20722261640119E-01
 cg2d: Sum(rhs),rhsMax =  -7.12118307416734E-03  2.20727996547264E-01
 cg2d: Sum(rhs),rhsMax =  -7.12140601153935E-03  2.20733732623699E-01
 cg2d: Sum(rhs),rhsMax =  -7.12162871390522E-03  2.20739469866543E-01
 cg2d: Sum(rhs),rhsMax =  -7.12185119167147E-03  2.20745208272922E-01
 cg2d: Sum(rhs),rhsMax =  -7.12207345274697E-03  2.20750947839953E-01
 cg2d: Sum(rhs),rhsMax =  -7.12229550671479E-03  2.20756688564750E-01
 cg2d: Sum(rhs),rhsMax =  -7.12251736291139E-03  2.20762430444398E-01
 cg2d: Sum(rhs),rhsMax =  -7.12273903014532E-03  2.20768173476007E-01
 cg2d: Sum(rhs),rhsMax =  -7.12296051890237E-03  2.20773917656651E-01
 cg2d: Sum(rhs),rhsMax =  -7.12318183765193E-03  2.20779662983423E-01
 cg2d: Sum(rhs),rhsMax =  -7.12340299668262E-03  2.20785409453382E-01
 cg2d: Sum(rhs),rhsMax =  -7.12362400513288E-03  2.20791157063608E-01
 cg2d: Sum(rhs),rhsMax =  -7.12384487238405E-03  2.20796905811149E-01
 cg2d: Sum(rhs),rhsMax =  -7.12406560868221E-03  2.20802655693058E-01
 cg2d: Sum(rhs),rhsMax =  -7.12428622378525E-03  2.20808406706386E-01
 cg2d: Sum(rhs),rhsMax =  -7.12450672726181E-03  2.20814158848165E-01
 cg2d: Sum(rhs),rhsMax =  -7.12472712908518E-03  2.20819912115431E-01
 cg2d: Sum(rhs),rhsMax =  -7.12494743953956E-03  2.20825666505197E-01
 cg2d: Sum(rhs),rhsMax =  -7.12516766866878E-03  2.20831422014495E-01
 cg2d: Sum(rhs),rhsMax =  -7.12538782593205E-03  2.20837178640326E-01
 cg2d: Sum(rhs),rhsMax =  -7.12560792227965E-03  2.20842936379696E-01
 cg2d: Sum(rhs),rhsMax =  -7.12582796696995E-03  2.20848695229601E-01
 cg2d: Sum(rhs),rhsMax =  -7.12604797140072E-03  2.20854455187027E-01
 cg2d: Sum(rhs),rhsMax =  -7.12626794520884E-03  2.20860216248960E-01
 cg2d: Sum(rhs),rhsMax =  -7.12648789885039E-03  2.20865978412381E-01
 cg2d: Sum(rhs),rhsMax =  -7.12670784265372E-03  2.20871741674245E-01
 cg2d: Sum(rhs),rhsMax =  -7.12692778796101E-03  2.20877506031527E-01
 cg2d: Sum(rhs),rhsMax =  -7.12714774376757E-03  2.20883271481177E-01
(PID.TID 0000.0001)      cg2d_init_res =   3.71272710496951E-04
(PID.TID 0000.0001)      cg2d_iters(min,last) =      -1      70
(PID.TID 0000.0001)      cg2d_last_res =   9.49942396250144E-08
(PID.TID 0000.0001) // =======================================================
(PID.TID 0000.0001) // Begin MONITOR dynamic field statistics
(PID.TID 0000.0001) // =======================================================
(PID.TID 0000.0001) %MON time_tsnumber                =                 16992
(PID.TID 0000.0001) %MON time_secondsf                =   2.0390400000000E+07
(PID.TID 0000.0001) %MON dynstat_eta_max              =   3.5396625107495E-01
(PID.TID 0000.0001) %MON dynstat_eta_min              =  -1.1279362067876E-01
(PID.TID 0000.0001) %MON dynstat_eta_mean             =   7.8677534763926E-06
(PID.TID 0000.0001) %MON dynstat_eta_sd               =   1.3640694871117E-01
(PID.TID 0000.0001) %MON dynstat_eta_del2             =   3.5025177740051E-05
(PID.TID 0000.0001) %MON dynstat_uvel_max             =   1.6876823884387E-01
(PID.TID 0000.0001) %MON dynstat_uvel_min             =  -1.3258212659850E-01
(PID.TID 0000.0001) %MON dynstat_uvel_mean            =  -6.0409637433537E-08
(PID.TID 0000.0001) %MON dynstat_uvel_sd              =   5.5617705932097E-02
(PID.TID 0000.0001) %MON dynstat_uvel_del2            =   7.5272161638101E-05
(PID.TID 0000.0001) %MON dynstat_vvel_max             =   1.1604390261174E-01
(PID.TID 0000.0001) %MON dynstat_vvel_min             =  -1.4339661865380E-01
(PID.TID 0000.0001) %MON dynstat_vvel_mean            =   1.1836250592076E-07
(PID.TID 0000.0001) %MON dynstat_vvel_sd              =   5.1091917550300E-02
(PID.TID 0000.0001) %MON dynstat_vvel_del2            =   3.6990826467873E-05
(PID.TID 0000.0001) %MON dynstat_wvel_max             =   1.3552690600045E-08
(PID.TID 0000.0001) %MON dynstat_wvel_min             =  -5.5871667724568E-09
(PID.TID 0000.0001) %MON dynstat_wvel_mean            =  -6.8707529660767E-21
(PID.TID 0000.0001) %MON dynstat_wvel_sd              =   4.5515902319124E-09
(PID.TID 0000.0001) %MON dynstat_wvel_del2            =   1.3034442668285E-12
(PID.TID 0000.0001) %MON dynstat_theta_max            =   2.0000000000000E+01
(PID.TID 0000.0001) %MON dynstat_theta_min            =   2.0000000000000E+01
(PID.TID 0000.0001) %MON dynstat_theta_mean           =   2.0000000000000E+01
(PID.TID 0000.0001) %MON dynstat_theta_sd             =   3.8014036363165E-13
(PID.TID 0000.0001) %MON dynstat_theta_del2           =   0.0000000000000E+00
(PID.TID 0000.0001) %MON dynstat_salt_max             =   3.0000000000000E+01
(PID.TID 0000.0001) %MON dynstat_salt_min             =   3.0000000000000E+01
(PID.TID 0000.0001) %MON dynstat_salt_mean            =   2.9999999999999E+01
(PID.TID 0000.0001) %MON dynstat_salt_sd              =   5.5777604757167E-13
(PID.TID 0000.0001) %MON dynstat_salt_del2            =   0.0000000000000E+00
(PID.TID 0000.0001) %MON trAdv_CFL_u_max              =   1.0125035651182E-02
(PID.TID 0000.0001) %MON trAdv_CFL_v_max              =   8.5923082662803E-03
(PID.TID 0000.0001) %MON trAdv_CFL_w_max              =   3.5617901925089E-09
(PID.TID 0000.0001) %MON advcfl_uvel_max              =   1.0126094330632E-02
(PID.TID 0000.0001) %MON advcfl_vvel_max              =   8.6037971192282E-03
(PID.TID 0000.0001) %MON advcfl_wvel_max              =   6.5052914880216E-09
(PID.TID 0000.0001) %MON advcfl_W_hf_max              =   0.0000000000000E+00
(PID.TID 0000.0001) %MON pe_b_mean                    =   1.9076393992883E-05
(PID.TID 0000.0001) %MON ke_max                       =   1.4267761416390E-02
(PID.TID 0000.0001) %MON ke_mean                      =   2.7994149295318E-03
(PID.TID 0000.0001) %MON ke_vol                       =   6.8893493896486E+15
(PID.TID 0000.0001) %MON vort_r_min                   =  -1.0479601763825E-06
(PID.TID 0000.0001) %MON vort_r_max                   =   3.6233586139869E-06
(PID.TID 0000.0001) %MON vort_a_mean                  =   1.0600000000000E-04
(PID.TID 0000.0001) %MON vort_a_sd                    =   3.5750943036740E-06
(PID.TID 0000.0001) %MON vort_p_mean                  =   1.1652272308690E-04
(PID.TID 0000.0001) %MON vort_p_sd                    =   4.1792112271812E-05
(PID.TID 0000.0001) %MON surfExpan_theta_mean         =  -1.3739875410263E-19
(PID.TID 0000.0001) %MON surfExpan_salt_mean          =  -2.0609434159269E-19
(PID.TID 0000.0001) // =======================================================
(PID.TID 0000.0001) // End MONITOR dynamic field statistics
(PID.TID 0000.0001) // =======================================================
 cg2d: Sum(rhs),rhsMax =  -7.12736772183629E-03  2.20889038020138E-01
 cg2d: Sum(rhs),rhsMax =  -7.12758773226368E-03  2.20894805645362E-01
 cg2d: Sum(rhs),rhsMax =  -7.12780778570375E-03  2.20900574353780E-01
 cg2d: Sum(rhs),rhsMax =  -7.12802789352464E-03  2.20906344142321E-01
 cg2d: Sum(rhs),rhsMax =  -7.12824806538178E-03  2.20912115007903E-01
 cg2d: Sum(rhs),rhsMax =  -7.12846831262502E-03  2.20917886947442E-01
 cg2d: Sum(rhs),rhsMax =  -7.12868864601827E-03  2.20923659957849E-01
 cg2d: Sum(rhs),rhsMax =  -7.12890907678956E-03  2.20929434036022E-01
 cg2d: Sum(rhs),rhsMax =  -7.12912961506600E-03  2.20935209178856E-01
 cg2d: Sum(rhs),rhsMax =  -7.12935027237806E-03  2.20940985383244E-01
 cg2d: Sum(rhs),rhsMax =  -7.12957105938437E-03  2.20946762646057E-01
 cg2d: Sum(rhs),rhsMax =  -7.12979198729334E-03  2.20952540964180E-01
 cg2d: Sum(rhs),rhsMax =  -7.13001306687180E-03  2.20958320334474E-01
 cg2d: Sum(rhs),rhsMax =  -7.13023430952539E-03  2.20964100753805E-01
 cg2d: Sum(rhs),rhsMax =  -7.13045572545569E-03  2.20969882219022E-01
 cg2d: Sum(rhs),rhsMax =  -7.13067732660190E-03  2.20975664726980E-01
 cg2d: Sum(rhs),rhsMax =  -7.13089912411827E-03  2.20981448274522E-01
 cg2d: Sum(rhs),rhsMax =  -7.13112112806978E-03  2.20987232858473E-01
 cg2d: Sum(rhs),rhsMax =  -7.13134335118756E-03  2.20993018475671E-01
 cg2d: Sum(rhs),rhsMax =  -7.13156580334156E-03  2.20998805122932E-01
 cg2d: Sum(rhs),rhsMax =  -7.13178849571494E-03  2.21004592797079E-01
 cg2d: Sum(rhs),rhsMax =  -7.13201144039823E-03  2.21010381494914E-01
 cg2d: Sum(rhs),rhsMax =  -7.13223464796790E-03  2.21016171213241E-01
 cg2d: Sum(rhs),rhsMax =  -7.13245812976475E-03  2.21021961948861E-01
 cg2d: Sum(rhs),rhsMax =  -7.13268189676184E-03  2.21027753698550E-01
 cg2d: Sum(rhs),rhsMax =  -7.13290596075062E-03  2.21033546459110E-01
 cg2d: Sum(rhs),rhsMax =  -7.13313033245772E-03  2.21039340227307E-01
 cg2d: Sum(rhs),rhsMax =  -7.13335502330665E-03  2.21045134999911E-01
 cg2d: Sum(rhs),rhsMax =  -7.13358004408172E-03  2.21050930773690E-01
 cg2d: Sum(rhs),rhsMax =  -7.13380540659530E-03  2.21056727545398E-01
 cg2d: Sum(rhs),rhsMax =  -7.13403112202102E-03  2.21062525311788E-01
 cg2d: Sum(rhs),rhsMax =  -7.13425720100411E-03  2.21068324069606E-01
 cg2d: Sum(rhs),rhsMax =  -7.13448365571028E-03  2.21074123815589E-01
 cg2d: Sum(rhs),rhsMax =  -7.13471049602826E-03  2.21079924546467E-01
 cg2d: Sum(rhs),rhsMax =  -7.13493773443030E-03  2.21085726258970E-01
 cg2d: Sum(rhs),rhsMax =  -7.13516538126949E-03  2.21091528949818E-01
 cg2d: Sum(rhs),rhsMax =  -7.13539344782628E-03  2.21097332615721E-01
 cg2d: Sum(rhs),rhsMax =  -7.13562194537271E-03  2.21103137253385E-01
 cg2d: Sum(rhs),rhsMax =  -7.13585088512202E-03  2.21108942859512E-01
 cg2d: Sum(rhs),rhsMax =  -7.13608027837837E-03  2.21114749430808E-01
 cg2d: Sum(rhs),rhsMax =  -7.13631013553293E-03  2.21120556963939E-01
 cg2d: Sum(rhs),rhsMax =  -7.13654046795330E-03  2.21126365455603E-01
 cg2d: Sum(rhs),rhsMax =  -7.13677128674441E-03  2.21132174902475E-01
 cg2d: Sum(rhs),rhsMax =  -7.13700260310334E-03  2.21137985301221E-01
 cg2d: Sum(rhs),rhsMax =  -7.13723442707899E-03  2.21143796648507E-01
 cg2d: Sum(rhs),rhsMax =  -7.13746677085750E-03  2.21149608940984E-01
 cg2d: Sum(rhs),rhsMax =  -7.13769964474779E-03  2.21155422175315E-01
 cg2d: Sum(rhs),rhsMax =  -7.13793305927577E-03  2.21161236348137E-01
 cg2d: Sum(rhs),rhsMax =  -7.13816702581865E-03  2.21167051456088E-01
 cg2d: Sum(rhs),rhsMax =  -7.13840155481529E-03  2.21172867495808E-01
 cg2d: Sum(rhs),rhsMax =  -7.13863665711873E-03  2.21178684463918E-01
 cg2d: Sum(rhs),rhsMax =  -7.13887234347128E-03  2.21184502357039E-01
 cg2d: Sum(rhs),rhsMax =  -7.13910862469041E-03  2.21190321171791E-01
 cg2d: Sum(rhs),rhsMax =  -7.13934551105860E-03  2.21196140904780E-01
 cg2d: Sum(rhs),rhsMax =  -7.13958301336940E-03  2.21201961552605E-01
 cg2d: Sum(rhs),rhsMax =  -7.13982114242223E-03  2.21207783111871E-01
 cg2d: Sum(rhs),rhsMax =  -7.14005990805168E-03  2.21213605579161E-01
 cg2d: Sum(rhs),rhsMax =  -7.14029932091261E-03  2.21219428951061E-01
 cg2d: Sum(rhs),rhsMax =  -7.14053939117999E-03  2.21225253224159E-01
 cg2d: Sum(rhs),rhsMax =  -7.14078012951949E-03  2.21231078395015E-01
 cg2d: Sum(rhs),rhsMax =  -7.14102154583288E-03  2.21236904460206E-01
 cg2d: Sum(rhs),rhsMax =  -7.14126365060343E-03  2.21242731416291E-01
 cg2d: Sum(rhs),rhsMax =  -7.14150645392440E-03  2.21248559259821E-01
 cg2d: Sum(rhs),rhsMax =  -7.14174996531883E-03  2.21254387987349E-01
 cg2d: Sum(rhs),rhsMax =  -7.14199419517056E-03  2.21260217595414E-01
 cg2d: Sum(rhs),rhsMax =  -7.14223915379749E-03  2.21266048080565E-01
 cg2d: Sum(rhs),rhsMax =  -7.14248485047204E-03  2.21271879439326E-01
 cg2d: Sum(rhs),rhsMax =  -7.14273129500959E-03  2.21277711668221E-01
 cg2d: Sum(rhs),rhsMax =  -7.14297849726079E-03  2.21283544763770E-01
 cg2d: Sum(rhs),rhsMax =  -7.14322646714062E-03  2.21289378722496E-01
 cg2d: Sum(rhs),rhsMax =  -7.14347521351899E-03  2.21295213540901E-01
 cg2d: Sum(rhs),rhsMax =  -7.14372474674732E-03  2.21301049215488E-01
(PID.TID 0000.0001)      cg2d_init_res =   3.69287874432562E-04
(PID.TID 0000.0001)      cg2d_iters(min,last) =      -1      70
(PID.TID 0000.0001)      cg2d_last_res =   9.26536893692079E-08
(PID.TID 0000.0001) // =======================================================
(PID.TID 0000.0001) // Begin MONITOR dynamic field statistics
(PID.TID 0000.0001) // =======================================================
(PID.TID 0000.0001) %MON time_tsnumber                =                 17064
(PID.TID 0000.0001) %MON time_secondsf                =   2.0476800000000E+07
(PID.TID 0000.0001) %MON dynstat_eta_max              =   3.5506338014782E-01
(PID.TID 0000.0001) %MON dynstat_eta_min              =  -1.1303938050133E-01
(PID.TID 0000.0001) %MON dynstat_eta_mean             =   7.9010038103792E-06
(PID.TID 0000.0001) %MON dynstat_eta_sd               =   1.3678468049381E-01
(PID.TID 0000.0001) %MON dynstat_eta_del2             =   3.5101073998610E-05
(PID.TID 0000.0001) %MON dynstat_uvel_max             =   1.6908192097335E-01
(PID.TID 0000.0001) %MON dynstat_uvel_min             =  -1.3301224322025E-01
(PID.TID 0000.0001) %MON dynstat_uvel_mean            =  -5.3209897120780E-08
(PID.TID 0000.0001) %MON dynstat_uvel_sd              =   5.5771996107027E-02
(PID.TID 0000.0001) %MON dynstat_uvel_del2            =   7.5332530710600E-05
(PID.TID 0000.0001) %MON dynstat_vvel_max             =   1.1643252603561E-01
(PID.TID 0000.0001) %MON dynstat_vvel_min             =  -1.4373749633525E-01
(PID.TID 0000.0001) %MON dynstat_vvel_mean            =   1.2294508424171E-07
(PID.TID 0000.0001) %MON dynstat_vvel_sd              =   5.1227825700268E-02
(PID.TID 0000.0001) %MON dynstat_vvel_del2            =   3.7016481667046E-05
(PID.TID 0000.0001) %MON dynstat_wvel_max             =   1.3509707768681E-08
(PID.TID 0000.0001) %MON dynstat_wvel_min             =  -5.6111046469596E-09
(PID.TID 0000.0001) %MON dynstat_wvel_mean            =   9.6099533190378E-21
(PID.TID 0000.0001) %MON dynstat_wvel_sd              =   4.5276231605395E-09
(PID.TID 0000.0001) %MON dynstat_wvel_del2            =   1.2971388831635E-12
(PID.TID 0000.0001) %MON dynstat_theta_max            =   2.0000000000000E+01
(PID.TID 0000.0001) %MON dynstat_theta_min            =   2.0000000000000E+01
(PID.TID 0000.0001) %MON dynstat_theta_mean           =   2.0000000000000E+01
(PID.TID 0000.0001) %MON dynstat_theta_sd             =   3.8014036363165E-13
(PID.TID 0000.0001) %MON dynstat_theta_del2           =   0.0000000000000E+00
(PID.TID 0000.0001) %MON dynstat_salt_max             =   3.0000000000000E+01
(PID.TID 0000.0001) %MON dynstat_salt_min             =   3.0000000000000E+01
(PID.TID 0000.0001) %MON dynstat_salt_mean            =   2.9999999999999E+01
(PID.TID 0000.0001) %MON dynstat_salt_sd              =   5.5777604757167E-13
(PID.TID 0000.0001) %MON dynstat_salt_del2            =   0.0000000000000E+00
(PID.TID 0000.0001) %MON trAdv_CFL_u_max              =   1.0143849375038E-02
(PID.TID 0000.0001) %MON trAdv_CFL_v_max              =   8.6127372769795E-03
(PID.TID 0000.0001) %MON trAdv_CFL_w_max              =   3.5492176644879E-09
(PID.TID 0000.0001) %MON advcfl_uvel_max              =   1.0144915258401E-02
(PID.TID 0000.0001) %MON advcfl_vvel_max              =   8.6242497801153E-03
(PID.TID 0000.0001) %MON advcfl_wvel_max              =   6.4846597289667E-09
(PID.TID 0000.0001) %MON advcfl_W_hf_max              =   0.0000000000000E+00
(PID.TID 0000.0001) %MON pe_b_mean                    =   1.9182191202166E-05
(PID.TID 0000.0001) %MON ke_max                       =   1.4320877311799E-02
(PID.TID 0000.0001) %MON ke_mean                      =   2.8146752680236E-03
(PID.TID 0000.0001) %MON ke_vol                       =   6.8893493896486E+15
(PID.TID 0000.0001) %MON vort_r_min                   =  -1.0514587924568E-06
(PID.TID 0000.0001) %MON vort_r_max                   =   3.6295756099152E-06
(PID.TID 0000.0001) %MON vort_a_mean                  =   1.0600000000000E-04
(PID.TID 0000.0001) %MON vort_a_sd                    =   3.5753235655789E-06
(PID.TID 0000.0001) %MON vort_p_mean                  =   1.1652272308690E-04
(PID.TID 0000.0001) %MON vort_p_sd                    =   4.1792187254155E-05
(PID.TID 0000.0001) %MON surfExpan_theta_mean         =   1.9220591538114E-19
(PID.TID 0000.0001) %MON surfExpan_salt_mean          =   2.8829876757502E-19
(PID.TID 0000.0001) // =======================================================
(PID.TID 0000.0001) // End MONITOR dynamic field statistics
(PID.TID 0000.0001) // =======================================================
 cg2d: Sum(rhs),rhsMax =  -7.14397507530703E-03  2.21306885742758E-01
 cg2d: Sum(rhs),rhsMax =  -7.14422620893041E-03  2.21312723119199E-01
 cg2d: Sum(rhs),rhsMax =  -7.14447815728193E-03  2.21318561341297E-01
 cg2d: Sum(rhs),rhsMax =  -7.14473092899385E-03  2.21324400405537E-01
 cg2d: Sum(rhs),rhsMax =  -7.14498453363965E-03  2.21330240308387E-01
 cg2d: Sum(rhs),rhsMax =  -7.14523897933558E-03  2.21336081046323E-01
 cg2d: Sum(rhs),rhsMax =  -7.14549427577052E-03  2.21341922615801E-01
 cg2d: Sum(rhs),rhsMax =  -7.14575043152677E-03  2.21347765013279E-01
 cg2d: Sum(rhs),rhsMax =  -7.14600745535097E-03  2.21353608235217E-01
 cg2d: Sum(rhs),rhsMax =  -7.14626535540962E-03  2.21359452278054E-01
 cg2d: Sum(rhs),rhsMax =  -7.14652414125710E-03  2.21365297138231E-01
 cg2d: Sum(rhs),rhsMax =  -7.14678382059245E-03  2.21371142812189E-01
 cg2d: Sum(rhs),rhsMax =  -7.14704440195209E-03  2.21376989296352E-01
 cg2d: Sum(rhs),rhsMax =  -7.14730589420817E-03  2.21382836587146E-01
 cg2d: Sum(rhs),rhsMax =  -7.14756830466922E-03  2.21388684680989E-01
 cg2d: Sum(rhs),rhsMax =  -7.14783164178296E-03  2.21394533574301E-01
 cg2d: Sum(rhs),rhsMax =  -7.14809591333585E-03  2.21400383263479E-01
 cg2d: Sum(rhs),rhsMax =  -7.14836112726961E-03  2.21406233744929E-01
 cg2d: Sum(rhs),rhsMax =  -7.14862729171205E-03  2.21412085015051E-01
 cg2d: Sum(rhs),rhsMax =  -7.14889441443656E-03  2.21417937070232E-01
 cg2d: Sum(rhs),rhsMax =  -7.14916250246550E-03  2.21423789906863E-01
 cg2d: Sum(rhs),rhsMax =  -7.14943156347856E-03  2.21429643521319E-01
 cg2d: Sum(rhs),rhsMax =  -7.14970160509637E-03  2.21435497909979E-01
 cg2d: Sum(rhs),rhsMax =  -7.15027631711388E-03  2.21441353124074E-01
 cg2d: Sum(rhs),rhsMax =  -7.15085168777273E-03  2.21447209041794E-01
 cg2d: Sum(rhs),rhsMax =  -7.15142768994696E-03  2.21453065723932E-01
 cg2d: Sum(rhs),rhsMax =  -7.15200435701988E-03  2.21458923160290E-01
 cg2d: Sum(rhs),rhsMax =  -7.15258169925849E-03  2.21464781347976E-01
 cg2d: Sum(rhs),rhsMax =  -7.15315971979401E-03  2.21470640286821E-01
 cg2d: Sum(rhs),rhsMax =  -7.15373841987072E-03  2.21476499975604E-01
 cg2d: Sum(rhs),rhsMax =  -7.15431779874266E-03  2.21482360410916E-01
 cg2d: Sum(rhs),rhsMax =  -7.15489785773454E-03  2.21488221588257E-01
 cg2d: Sum(rhs),rhsMax =  -7.15547859968989E-03  2.21494083503251E-01
 cg2d: Sum(rhs),rhsMax =  -7.15606002802506E-03  2.21499946151972E-01
 cg2d: Sum(rhs),rhsMax =  -7.15664214612715E-03  2.21505809530812E-01
 cg2d: Sum(rhs),rhsMax =  -7.15722495806423E-03  2.21511673636240E-01
 cg2d: Sum(rhs),rhsMax =  -7.15780846718908E-03  2.21517538464701E-01
 cg2d: Sum(rhs),rhsMax =  -7.15839267517683E-03  2.21523404012521E-01
 cg2d: Sum(rhs),rhsMax =  -7.15897758464512E-03  2.21529270275957E-01
 cg2d: Sum(rhs),rhsMax =  -7.15956319832288E-03  2.21535137251235E-01
 cg2d: Sum(rhs),rhsMax =  -7.16014951858906E-03  2.21541004934569E-01
 cg2d: Sum(rhs),rhsMax =  -7.16073654768731E-03  2.21546873322207E-01
 cg2d: Sum(rhs),rhsMax =  -7.16132428823208E-03  2.21552742410411E-01
 cg2d: Sum(rhs),rhsMax =  -7.16191274243701E-03  2.21558612195471E-01
 cg2d: Sum(rhs),rhsMax =  -7.16250191263971E-03  2.21564482673687E-01
 cg2d: Sum(rhs),rhsMax =  -7.16309180090729E-03  2.21570353841329E-01
 cg2d: Sum(rhs),rhsMax =  -7.16368240939201E-03  2.21576225694670E-01
 cg2d: Sum(rhs),rhsMax =  -7.16427373959931E-03  2.21582098229951E-01
 cg2d: Sum(rhs),rhsMax =  -7.16486579371607E-03  2.21587971443413E-01
 cg2d: Sum(rhs),rhsMax =  -7.16545857388047E-03  2.21593845331272E-01
 cg2d: Sum(rhs),rhsMax =  -7.16605208158826E-03  2.21599719889761E-01
 cg2d: Sum(rhs),rhsMax =  -7.16664631826585E-03  2.21605595115083E-01
 cg2d: Sum(rhs),rhsMax =  -7.16724128593785E-03  2.21611471003468E-01
 cg2d: Sum(rhs),rhsMax =  -7.16783698574092E-03  2.21617347551138E-01
 cg2d: Sum(rhs),rhsMax =  -7.16843341957787E-03  2.21623224754293E-01
 cg2d: Sum(rhs),rhsMax =  -7.16903058857535E-03  2.21629102609162E-01
 cg2d: Sum(rhs),rhsMax =  -7.16962849419878E-03  2.21634981111932E-01
 cg2d: Sum(rhs),rhsMax =  -7.17022713759582E-03  2.21640860258809E-01
 cg2d: Sum(rhs),rhsMax =  -7.17082652005728E-03  2.21646740045991E-01
 cg2d: Sum(rhs),rhsMax =  -7.17142664236727E-03  2.21652620469656E-01
 cg2d: Sum(rhs),rhsMax =  -7.17202750600459E-03  2.21658501525995E-01
 cg2d: Sum(rhs),rhsMax =  -7.17262911217136E-03  2.21664383211175E-01
 cg2d: Sum(rhs),rhsMax =  -7.17323146073867E-03  2.21670265521374E-01
 cg2d: Sum(rhs),rhsMax =  -7.17383455393913E-03  2.21676148452757E-01
 cg2d: Sum(rhs),rhsMax =  -7.17443839151688E-03  2.21682032001485E-01
 cg2d: Sum(rhs),rhsMax =  -7.17504297448769E-03  2.21687916163730E-01
 cg2d: Sum(rhs),rhsMax =  -7.17564830334027E-03  2.21693800935629E-01
 cg2d: Sum(rhs),rhsMax =  -7.17625437882838E-03  2.21699686313347E-01
 cg2d: Sum(rhs),rhsMax =  -7.17686120130199E-03  2.21705572293022E-01
 cg2d: Sum(rhs),rhsMax =  -7.17746877188298E-03  2.21711458870798E-01
 cg2d: Sum(rhs),rhsMax =  -7.17807709004629E-03  2.21717346042808E-01
 cg2d: Sum(rhs),rhsMax =  -7.17868615620617E-03  2.21723233805184E-01
(PID.TID 0000.0001)      cg2d_init_res =   3.66993996404209E-04
(PID.TID 0000.0001)      cg2d_iters(min,last) =      -1      68
(PID.TID 0000.0001)      cg2d_last_res =   9.76928156742567E-08
(PID.TID 0000.0001) // =======================================================
(PID.TID 0000.0001) // Begin MONITOR dynamic field statistics
(PID.TID 0000.0001) // =======================================================
(PID.TID 0000.0001) %MON time_tsnumber                =                 17136
(PID.TID 0000.0001) %MON time_secondsf                =   2.0563200000000E+07
(PID.TID 0000.0001) %MON dynstat_eta_max              =   3.5615773875579E-01
(PID.TID 0000.0001) %MON dynstat_eta_min              =  -1.1327659947598E-01
(PID.TID 0000.0001) %MON dynstat_eta_mean             =   7.9552166052503E-06
(PID.TID 0000.0001) %MON dynstat_eta_sd               =   1.3716050941805E-01
(PID.TID 0000.0001) %MON dynstat_eta_del2             =   3.5177431635836E-05
(PID.TID 0000.0001) %MON dynstat_uvel_max             =   1.6940237430529E-01
(PID.TID 0000.0001) %MON dynstat_uvel_min             =  -1.3344889263819E-01
(PID.TID 0000.0001) %MON dynstat_uvel_mean            =  -4.5097915318306E-08
(PID.TID 0000.0001) %MON dynstat_uvel_sd              =   5.5926976585674E-02
(PID.TID 0000.0001) %MON dynstat_uvel_del2            =   7.5394726197622E-05
(PID.TID 0000.0001) %MON dynstat_vvel_max             =   1.1680910801029E-01
(PID.TID 0000.0001) %MON dynstat_vvel_min             =  -1.4407543210644E-01
(PID.TID 0000.0001) %MON dynstat_vvel_mean            =   1.2640345366831E-07
(PID.TID 0000.0001) %MON dynstat_vvel_sd              =   5.1361833824390E-02
(PID.TID 0000.0001) %MON dynstat_vvel_del2            =   3.7043341885511E-05
(PID.TID 0000.0001) %MON dynstat_wvel_max             =   1.3447908342350E-08
(PID.TID 0000.0001) %MON dynstat_wvel_min             =  -5.6406024665921E-09
(PID.TID 0000.0001) %MON dynstat_wvel_mean            =   1.8236581430150E-22
(PID.TID 0000.0001) %MON dynstat_wvel_sd              =   4.5034002126566E-09
(PID.TID 0000.0001) %MON dynstat_wvel_del2            =   1.2891041477047E-12
(PID.TID 0000.0001) %MON dynstat_theta_max            =   2.0000000000000E+01
(PID.TID 0000.0001) %MON dynstat_theta_min            =   2.0000000000000E+01
(PID.TID 0000.0001) %MON dynstat_theta_mean           =   2.0000000000000E+01
(PID.TID 0000.0001) %MON dynstat_theta_sd             =   3.8014036363165E-13
(PID.TID 0000.0001) %MON dynstat_theta_del2           =   0.0000000000000E+00
(PID.TID 0000.0001) %MON dynstat_salt_max             =   3.0000000000000E+01
(PID.TID 0000.0001) %MON dynstat_salt_min             =   3.0000000000000E+01
(PID.TID 0000.0001) %MON dynstat_salt_mean            =   2.9999999999999E+01
(PID.TID 0000.0001) %MON dynstat_salt_sd              =   5.5777604757167E-13
(PID.TID 0000.0001) %MON dynstat_salt_del2            =   0.0000000000000E+00
(PID.TID 0000.0001) %MON trAdv_CFL_u_max              =   1.0163069510297E-02
(PID.TID 0000.0001) %MON trAdv_CFL_v_max              =   8.6329889596954E-03
(PID.TID 0000.0001) %MON trAdv_CFL_w_max              =   3.5330516627651E-09
(PID.TID 0000.0001) %MON advcfl_uvel_max              =   1.0164142458317E-02
(PID.TID 0000.0001) %MON advcfl_vvel_max              =   8.6445259263867E-03
(PID.TID 0000.0001) %MON advcfl_wvel_max              =   6.4549960043281E-09
(PID.TID 0000.0001) %MON advcfl_W_hf_max              =   0.0000000000000E+00
(PID.TID 0000.0001) %MON pe_b_mean                    =   1.9287745805302E-05
(PID.TID 0000.0001) %MON ke_max                       =   1.4375221276142E-02
(PID.TID 0000.0001) %MON ke_mean                      =   2.8299192059760E-03
(PID.TID 0000.0001) %MON ke_vol                       =   6.8893493896486E+15
(PID.TID 0000.0001) %MON vort_r_min                   =  -1.0548554689434E-06
(PID.TID 0000.0001) %MON vort_r_max                   =   3.6359182535111E-06
(PID.TID 0000.0001) %MON vort_a_mean                  =   1.0600000000000E-04
(PID.TID 0000.0001) %MON vort_a_sd                    =   3.5755544877109E-06
(PID.TID 0000.0001) %MON vort_p_mean                  =   1.1652272308690E-04
(PID.TID 0000.0001) %MON vort_p_sd                    =   4.1792259953916E-05
(PID.TID 0000.0001) %MON surfExpan_theta_mean         =   3.6386104006346E-21
(PID.TID 0000.0001) %MON surfExpan_salt_mean          =   5.4566524138661E-21
(PID.TID 0000.0001) // =======================================================
(PID.TID 0000.0001) // End MONITOR dynamic field statistics
(PID.TID 0000.0001) // =======================================================
 cg2d: Sum(rhs),rhsMax =  -7.17929597081333E-03  2.21729122154051E-01
 cg2d: Sum(rhs),rhsMax =  -7.17990653426291E-03  2.21735011085537E-01
 cg2d: Sum(rhs),rhsMax =  -7.18051784618620E-03  2.21740900595754E-01
 cg2d: Sum(rhs),rhsMax =  -7.18112990708202E-03  2.21746790680817E-01
 cg2d: Sum(rhs),rhsMax =  -7.18174271691727E-03  2.21752681336832E-01
 cg2d: Sum(rhs),rhsMax =  -7.18235627523565E-03  2.21758572559908E-01
 cg2d: Sum(rhs),rhsMax =  -7.18297058258825E-03  2.21764464346142E-01
 cg2d: Sum(rhs),rhsMax =  -7.18358563802519E-03  2.21770356691629E-01
 cg2d: Sum(rhs),rhsMax =  -7.18420144178546E-03  2.21776249592463E-01
 cg2d: Sum(rhs),rhsMax =  -7.18481799331785E-03  2.21782143044725E-01
 cg2d: Sum(rhs),rhsMax =  -7.18543529243273E-03  2.21788037044501E-01
 cg2d: Sum(rhs),rhsMax =  -7.18605333864101E-03  2.21793931587867E-01
 cg2d: Sum(rhs),rhsMax =  -7.18667213132415E-03  2.21799826670896E-01
 cg2d: Sum(rhs),rhsMax =  -7.18729166970268E-03  2.21805722289659E-01
 cg2d: Sum(rhs),rhsMax =  -7.18791195363244E-03  2.21811618440215E-01
 cg2d: Sum(rhs),rhsMax =  -7.18853298291065E-03  2.21817515118632E-01
 cg2d: Sum(rhs),rhsMax =  -7.18915475601031E-03  2.21823412320963E-01
 cg2d: Sum(rhs),rhsMax =  -7.18977727252780E-03  2.21829310043258E-01
 cg2d: Sum(rhs),rhsMax =  -7.19040053142974E-03  2.21835208281567E-01
 cg2d: Sum(rhs),rhsMax =  -7.19102453252771E-03  2.21841107031925E-01
 cg2d: Sum(rhs),rhsMax =  -7.19164927420819E-03  2.21847006290385E-01
 cg2d: Sum(rhs),rhsMax =  -7.19227475549657E-03  2.21852906052973E-01
 cg2d: Sum(rhs),rhsMax =  -7.19290097562315E-03  2.21858806315716E-01
 cg2d: Sum(rhs),rhsMax =  -7.19352793332184E-03  2.21864707074651E-01
 cg2d: Sum(rhs),rhsMax =  -7.19415562793931E-03  2.21870608325791E-01
 cg2d: Sum(rhs),rhsMax =  -7.19478405752035E-03  2.21876510065161E-01
 cg2d: Sum(rhs),rhsMax =  -7.19541322183887E-03  2.21882412288766E-01
 cg2d: Sum(rhs),rhsMax =  -7.19604311838022E-03  2.21888314992626E-01
 cg2d: Sum(rhs),rhsMax =  -7.19667374733539E-03  2.21894218172742E-01
 cg2d: Sum(rhs),rhsMax =  -7.19730510641217E-03  2.21900121825112E-01
 cg2d: Sum(rhs),rhsMax =  -7.19793719490919E-03  2.21906025945741E-01
 cg2d: Sum(rhs),rhsMax =  -7.19857001063688E-03  2.21911930530617E-01
 cg2d: Sum(rhs),rhsMax =  -7.19920355237907E-03  2.21917835575733E-01
 cg2d: Sum(rhs),rhsMax =  -7.19983781859563E-03  2.21923741077072E-01
 cg2d: Sum(rhs),rhsMax =  -7.20047280780824E-03  2.21929647030615E-01
 cg2d: Sum(rhs),rhsMax =  -7.20110851848009E-03  2.21935553432340E-01
 cg2d: Sum(rhs),rhsMax =  -7.20174494893330E-03  2.21941460278228E-01
 cg2d: Sum(rhs),rhsMax =  -7.20251358468037E-03  2.21947367436378E-01
 cg2d: Sum(rhs),rhsMax =  -7.20328250510447E-03  2.21953275176628E-01
 cg2d: Sum(rhs),rhsMax =  -7.20405197392571E-03  2.21959183330731E-01
 cg2d: Sum(rhs),rhsMax =  -7.20482190582707E-03  2.21965091908304E-01
 cg2d: Sum(rhs),rhsMax =  -7.20559231467863E-03  2.21971000908094E-01
 cg2d: Sum(rhs),rhsMax =  -7.20636319605480E-03  2.21976910326968E-01
 cg2d: Sum(rhs),rhsMax =  -7.20713454623403E-03  2.21982820162859E-01
 cg2d: Sum(rhs),rhsMax =  -7.20790636058805E-03  2.21988730411846E-01
 cg2d: Sum(rhs),rhsMax =  -7.20867863612903E-03  2.21994641069314E-01
 cg2d: Sum(rhs),rhsMax =  -7.20945136966091E-03  2.22000552130520E-01
 cg2d: Sum(rhs),rhsMax =  -7.21022456079859E-03  2.22006463591056E-01
 cg2d: Sum(rhs),rhsMax =  -7.21099820812307E-03  2.22012375446851E-01
 cg2d: Sum(rhs),rhsMax =  -7.21177231027966E-03  2.22018287693971E-01
 cg2d: Sum(rhs),rhsMax =  -7.21254686565455E-03  2.22024200328501E-01
 cg2d: Sum(rhs),rhsMax =  -7.21332187144085E-03  2.22030113346448E-01
 cg2d: Sum(rhs),rhsMax =  -7.21409732661024E-03  2.22036026743728E-01
 cg2d: Sum(rhs),rhsMax =  -7.21487322852726E-03  2.22041940516207E-01
 cg2d: Sum(rhs),rhsMax =  -7.21564957535494E-03  2.22047854659733E-01
 cg2d: Sum(rhs),rhsMax =  -7.21642636469125E-03  2.22053769170172E-01
 cg2d: Sum(rhs),rhsMax =  -7.21720359535964E-03  2.22059684043416E-01
 cg2d: Sum(rhs),rhsMax =  -7.21798126516312E-03  2.22065599275367E-01
 cg2d: Sum(rhs),rhsMax =  -7.21875937160879E-03  2.22071514861944E-01
 cg2d: Sum(rhs),rhsMax =  -7.21953791265936E-03  2.22077430799040E-01
 cg2d: Sum(rhs),rhsMax =  -7.22031688687326E-03  2.22083347082550E-01
 cg2d: Sum(rhs),rhsMax =  -7.22109629222373E-03  2.22089263708359E-01
 cg2d: Sum(rhs),rhsMax =  -7.22187612612513E-03  2.22095180672331E-01
 cg2d: Sum(rhs),rhsMax =  -7.22265638681142E-03  2.22101097970348E-01
 cg2d: Sum(rhs),rhsMax =  -7.22343707205310E-03  2.22107015598269E-01
 cg2d: Sum(rhs),rhsMax =  -7.22421817972757E-03  2.22112933551951E-01
 cg2d: Sum(rhs),rhsMax =  -7.22499970835058E-03  2.22118851827269E-01
 cg2d: Sum(rhs),rhsMax =  -7.22578165457137E-03  2.22124770420074E-01
 cg2d: Sum(rhs),rhsMax =  -7.22656401713974E-03  2.22130689326228E-01
 cg2d: Sum(rhs),rhsMax =  -7.22734679394964E-03  2.22136608541579E-01
 cg2d: Sum(rhs),rhsMax =  -7.22812998245106E-03  2.22142528061990E-01
 cg2d: Sum(rhs),rhsMax =  -7.22891358086714E-03  2.22148447883299E-01
(PID.TID 0000.0001)      cg2d_init_res =   3.64367791086100E-04
(PID.TID 0000.0001)      cg2d_iters(min,last) =      -1      67
(PID.TID 0000.0001)      cg2d_last_res =   9.89761471267363E-08
(PID.TID 0000.0001) // =======================================================
(PID.TID 0000.0001) // Begin MONITOR dynamic field statistics
(PID.TID 0000.0001) // =======================================================
(PID.TID 0000.0001) %MON time_tsnumber                =                 17208
(PID.TID 0000.0001) %MON time_secondsf                =   2.0649600000000E+07
(PID.TID 0000.0001) %MON dynstat_eta_max              =   3.5724946768917E-01
(PID.TID 0000.0001) %MON dynstat_eta_min              =  -1.1350645962645E-01
(PID.TID 0000.0001) %MON dynstat_eta_mean             =   8.0264296214894E-06
(PID.TID 0000.0001) %MON dynstat_eta_sd               =   1.3753432482152E-01
(PID.TID 0000.0001) %MON dynstat_eta_del2             =   3.5254278221052E-05
(PID.TID 0000.0001) %MON dynstat_uvel_max             =   1.6972930321375E-01
(PID.TID 0000.0001) %MON dynstat_uvel_min             =  -1.3388966439789E-01
(PID.TID 0000.0001) %MON dynstat_uvel_mean            =  -3.6400154784181E-08
(PID.TID 0000.0001) %MON dynstat_uvel_sd              =   5.6082197886586E-02
(PID.TID 0000.0001) %MON dynstat_uvel_del2            =   7.5458704853164E-05
(PID.TID 0000.0001) %MON dynstat_vvel_max             =   1.1717400257150E-01
(PID.TID 0000.0001) %MON dynstat_vvel_min             =  -1.4441163510270E-01
(PID.TID 0000.0001) %MON dynstat_vvel_mean            =   1.2865506132111E-07
(PID.TID 0000.0001) %MON dynstat_vvel_sd              =   5.1494390759833E-02
(PID.TID 0000.0001) %MON dynstat_vvel_del2            =   3.7070678000732E-05
(PID.TID 0000.0001) %MON dynstat_wvel_max             =   1.3386537330225E-08
(PID.TID 0000.0001) %MON dynstat_wvel_min             =  -5.6714044124237E-09
(PID.TID 0000.0001) %MON dynstat_wvel_mean            =  -1.0765805629692E-20
(PID.TID 0000.0001) %MON dynstat_wvel_sd              =   4.4794127870844E-09
(PID.TID 0000.0001) %MON dynstat_wvel_del2            =   1.2860227422630E-12
(PID.TID 0000.0001) %MON dynstat_theta_max            =   2.0000000000000E+01
(PID.TID 0000.0001) %MON dynstat_theta_min            =   2.0000000000000E+01
(PID.TID 0000.0001) %MON dynstat_theta_mean           =   2.0000000000000E+01
(PID.TID 0000.0001) %MON dynstat_theta_sd             =   3.8014036363165E-13
(PID.TID 0000.0001) %MON dynstat_theta_del2           =   0.0000000000000E+00
(PID.TID 0000.0001) %MON dynstat_salt_max             =   3.0000000000000E+01
(PID.TID 0000.0001) %MON dynstat_salt_min             =   3.0000000000000E+01
(PID.TID 0000.0001) %MON dynstat_salt_mean            =   2.9999999999999E+01
(PID.TID 0000.0001) %MON dynstat_salt_sd              =   5.5777604757167E-13
(PID.TID 0000.0001) %MON dynstat_salt_del2            =   0.0000000000000E+00
(PID.TID 0000.0001) %MON trAdv_CFL_u_max              =   1.0182678467644E-02
(PID.TID 0000.0001) %MON trAdv_CFL_v_max              =   8.6531358453029E-03
(PID.TID 0000.0001) %MON trAdv_CFL_w_max              =   3.5163558787676E-09
(PID.TID 0000.0001) %MON advcfl_uvel_max              =   1.0183758192825E-02
(PID.TID 0000.0001) %MON advcfl_vvel_max              =   8.6646981061623E-03
(PID.TID 0000.0001) %MON advcfl_wvel_max              =   6.4255379185081E-09
(PID.TID 0000.0001) %MON advcfl_W_hf_max              =   0.0000000000000E+00
(PID.TID 0000.0001) %MON pe_b_mean                    =   1.9393022195162E-05
(PID.TID 0000.0001) %MON ke_max                       =   1.4430760236986E-02
(PID.TID 0000.0001) %MON ke_mean                      =   2.8451442516485E-03
(PID.TID 0000.0001) %MON ke_vol                       =   6.8893493896486E+15
(PID.TID 0000.0001) %MON vort_r_min                   =  -1.0581594836389E-06
(PID.TID 0000.0001) %MON vort_r_max                   =   3.6423826892122E-06
(PID.TID 0000.0001) %MON vort_a_mean                  =   1.0600000000000E-04
(PID.TID 0000.0001) %MON vort_a_sd                    =   3.5757867415530E-06
(PID.TID 0000.0001) %MON vort_p_mean                  =   1.1652272308690E-04
(PID.TID 0000.0001) %MON vort_p_sd                    =   4.1792329702841E-05
(PID.TID 0000.0001) %MON surfExpan_theta_mean         =  -2.1528308025154E-19
(PID.TID 0000.0001) %MON surfExpan_salt_mean          =  -3.2293851543525E-19
(PID.TID 0000.0001) // =======================================================
(PID.TID 0000.0001) // End MONITOR dynamic field statistics
(PID.TID 0000.0001) // =======================================================
 cg2d: Sum(rhs),rhsMax =  -7.22969758695343E-03  2.22154368001347E-01
 cg2d: Sum(rhs),rhsMax =  -7.23048199849881E-03  2.22160288411977E-01
 cg2d: Sum(rhs),rhsMax =  -7.23126681394654E-03  2.22166209111025E-01
 cg2d: Sum(rhs),rhsMax =  -7.23205202957657E-03  2.22172130094329E-01
 cg2d: Sum(rhs),rhsMax =  -7.23283764456770E-03  2.22178051357710E-01
 cg2d: Sum(rhs),rhsMax =  -7.23362365617276E-03  2.22183972897001E-01
 cg2d: Sum(rhs),rhsMax =  -7.23441006290979E-03  2.22189894708022E-01
 cg2d: Sum(rhs),rhsMax =  -7.23519686142063E-03  2.22195816786592E-01
 cg2d: Sum(rhs),rhsMax =  -7.23598405066403E-03  2.22201739128533E-01
 cg2d: Sum(rhs),rhsMax =  -7.23677162787213E-03  2.22207661729650E-01
 cg2d: Sum(rhs),rhsMax =  -7.23755959101380E-03  2.22213584585766E-01
 cg2d: Sum(rhs),rhsMax =  -7.23834793782021E-03  2.22219507692677E-01
 cg2d: Sum(rhs),rhsMax =  -7.23913666574751E-03  2.22225431046200E-01
 cg2d: Sum(rhs),rhsMax =  -7.23992577301491E-03  2.22231354642125E-01
 cg2d: Sum(rhs),rhsMax =  -7.24071525740855E-03  2.22237278476257E-01
 cg2d: Sum(rhs),rhsMax =  -7.24150511700159E-03  2.22243202544387E-01
 cg2d: Sum(rhs),rhsMax =  -7.24229534905291E-03  2.22249126842313E-01
 cg2d: Sum(rhs),rhsMax =  -7.24308595169653E-03  2.22255051365816E-01
 cg2d: Sum(rhs),rhsMax =  -7.24387692204558E-03  2.22260976110694E-01
 cg2d: Sum(rhs),rhsMax =  -7.24466825877463E-03  2.22266901072716E-01
 cg2d: Sum(rhs),rhsMax =  -7.24545995931731E-03  2.22272826247678E-01
 cg2d: Sum(rhs),rhsMax =  -7.24625202125192E-03  2.22278751631346E-01
 cg2d: Sum(rhs),rhsMax =  -7.24704444276383E-03  2.22284677219497E-01
 cg2d: Sum(rhs),rhsMax =  -7.24783722136244E-03  2.22290603007903E-01
 cg2d: Sum(rhs),rhsMax =  -7.24863035538365E-03  2.22296528992330E-01
 cg2d: Sum(rhs),rhsMax =  -7.24942384205885E-03  2.22302455168556E-01
 cg2d: Sum(rhs),rhsMax =  -7.25021767925343E-03  2.22308381532329E-01
 cg2d: Sum(rhs),rhsMax =  -7.25101186530600E-03  2.22314308079414E-01
 cg2d: Sum(rhs),rhsMax =  -7.25180639756819E-03  2.22320234805567E-01
 cg2d: Sum(rhs),rhsMax =  -7.25260127381040E-03  2.22326161706551E-01
 cg2d: Sum(rhs),rhsMax =  -7.25339649206294E-03  2.22332088778110E-01
 cg2d: Sum(rhs),rhsMax =  -7.25419205000733E-03  2.22338016015991E-01
 cg2d: Sum(rhs),rhsMax =  -7.25498794534320E-03  2.22343943415951E-01
 cg2d: Sum(rhs),rhsMax =  -7.25578417639789E-03  2.22349870973714E-01
 cg2d: Sum(rhs),rhsMax =  -7.25658074069568E-03  2.22355798685042E-01
 cg2d: Sum(rhs),rhsMax =  -7.25737763562261E-03  2.22361726545663E-01
 cg2d: Sum(rhs),rhsMax =  -7.25817485992094E-03  2.22367654551314E-01
 cg2d: Sum(rhs),rhsMax =  -7.25897241083677E-03  2.22373582697724E-01
 cg2d: Sum(rhs),rhsMax =  -7.25977028673953E-03  2.22379510980628E-01
 cg2d: Sum(rhs),rhsMax =  -7.26056848498824E-03  2.22385439395753E-01
 cg2d: Sum(rhs),rhsMax =  -7.26136700359933E-03  2.22391367938820E-01
 cg2d: Sum(rhs),rhsMax =  -7.26216584074133E-03  2.22397296605558E-01
 cg2d: Sum(rhs),rhsMax =  -7.26296499411272E-03  2.22403225391680E-01
 cg2d: Sum(rhs),rhsMax =  -7.26376446132470E-03  2.22409154292906E-01
 cg2d: Sum(rhs),rhsMax =  -7.26456424081942E-03  2.22415083304951E-01
 cg2d: Sum(rhs),rhsMax =  -7.26536433013177E-03  2.22421012423526E-01
 cg2d: Sum(rhs),rhsMax =  -7.26616472725670E-03  2.22426941644344E-01
 cg2d: Sum(rhs),rhsMax =  -7.26696543006209E-03  2.22432870963107E-01
 cg2d: Sum(rhs),rhsMax =  -7.26776643653997E-03  2.22438800375525E-01
 cg2d: Sum(rhs),rhsMax =  -7.26856774488202E-03  2.22444729877299E-01
 cg2d: Sum(rhs),rhsMax =  -7.26936935252098E-03  2.22450659464122E-01
 cg2d: Sum(rhs),rhsMax =  -7.27017125758993E-03  2.22456589131702E-01
 cg2d: Sum(rhs),rhsMax =  -7.27097345848151E-03  2.22462518875727E-01
 cg2d: Sum(rhs),rhsMax =  -7.27177595307990E-03  2.22468448691892E-01
 cg2d: Sum(rhs),rhsMax =  -7.27257873894711E-03  2.22474378575887E-01
 cg2d: Sum(rhs),rhsMax =  -7.27338181448687E-03  2.22480308523404E-01
 cg2d: Sum(rhs),rhsMax =  -7.27418517748090E-03  2.22486238530122E-01
 cg2d: Sum(rhs),rhsMax =  -7.27498882601748E-03  2.22492168591727E-01
 cg2d: Sum(rhs),rhsMax =  -7.27579275802660E-03  2.22498098703905E-01
 cg2d: Sum(rhs),rhsMax =  -7.27659697161213E-03  2.22504028862326E-01
 cg2d: Sum(rhs),rhsMax =  -7.27740146459934E-03  2.22509959062675E-01
 cg2d: Sum(rhs),rhsMax =  -7.27820623556482E-03  2.22515889300621E-01
 cg2d: Sum(rhs),rhsMax =  -7.27901128233393E-03  2.22521819571838E-01
 cg2d: Sum(rhs),rhsMax =  -7.27981660241324E-03  2.22527749871996E-01
 cg2d: Sum(rhs),rhsMax =  -7.28062219507981E-03  2.22533680196766E-01
 cg2d: Sum(rhs),rhsMax =  -7.28142805716717E-03  2.22539610541810E-01
 cg2d: Sum(rhs),rhsMax =  -7.28223418764084E-03  2.22545540902788E-01
 cg2d: Sum(rhs),rhsMax =  -7.28304058446138E-03  2.22551471275371E-01
 cg2d: Sum(rhs),rhsMax =  -7.28384724582094E-03  2.22557401655214E-01
 cg2d: Sum(rhs),rhsMax =  -7.28465416985793E-03  2.22563332037971E-01
 cg2d: Sum(rhs),rhsMax =  -7.28546135440237E-03  2.22569262419304E-01
 cg2d: Sum(rhs),rhsMax =  -7.28626879727723E-03  2.22575192794862E-01
(PID.TID 0000.0001)      cg2d_init_res =   3.61431880842192E-04
(PID.TID 0000.0001)      cg2d_iters(min,last) =      -1      67
(PID.TID 0000.0001)      cg2d_last_res =   9.78523524910076E-08
(PID.TID 0000.0001) // =======================================================
(PID.TID 0000.0001) // Begin MONITOR dynamic field statistics
(PID.TID 0000.0001) // =======================================================
(PID.TID 0000.0001) %MON time_tsnumber                =                 17280
(PID.TID 0000.0001) %MON time_secondsf                =   2.0736000000000E+07
(PID.TID 0000.0001) %MON dynstat_eta_max              =   3.5833870721783E-01
(PID.TID 0000.0001) %MON dynstat_eta_min              =  -1.1373024739400E-01
(PID.TID 0000.0001) %MON dynstat_eta_mean             =   8.1056728624521E-06
(PID.TID 0000.0001) %MON dynstat_eta_sd               =   1.3790604676654E-01
(PID.TID 0000.0001) %MON dynstat_eta_del2             =   3.5331631167618E-05
(PID.TID 0000.0001) %MON dynstat_uvel_max             =   1.7006224072869E-01
(PID.TID 0000.0001) %MON dynstat_uvel_min             =  -1.3433205209097E-01
(PID.TID 0000.0001) %MON dynstat_uvel_mean            =  -2.7452384397177E-08
(PID.TID 0000.0001) %MON dynstat_uvel_sd              =   5.6237191173833E-02
(PID.TID 0000.0001) %MON dynstat_uvel_del2            =   7.5524369912875E-05
(PID.TID 0000.0001) %MON dynstat_vvel_max             =   1.1752799312955E-01
(PID.TID 0000.0001) %MON dynstat_vvel_min             =  -1.4474720719433E-01
(PID.TID 0000.0001) %MON dynstat_vvel_mean            =   1.2966653300600E-07
(PID.TID 0000.0001) %MON dynstat_vvel_sd              =   5.1625978821012E-02
(PID.TID 0000.0001) %MON dynstat_vvel_del2            =   3.7097777780405E-05
(PID.TID 0000.0001) %MON dynstat_wvel_max             =   1.3327563653002E-08
(PID.TID 0000.0001) %MON dynstat_wvel_min             =  -5.7108070826143E-09
(PID.TID 0000.0001) %MON dynstat_wvel_mean            =   3.2908696488852E-21
(PID.TID 0000.0001) %MON dynstat_wvel_sd              =   4.4560243249127E-09
(PID.TID 0000.0001) %MON dynstat_wvel_del2            =   1.2821136736855E-12
(PID.TID 0000.0001) %MON dynstat_theta_max            =   2.0000000000000E+01
(PID.TID 0000.0001) %MON dynstat_theta_min            =   2.0000000000000E+01
(PID.TID 0000.0001) %MON dynstat_theta_mean           =   2.0000000000000E+01
(PID.TID 0000.0001) %MON dynstat_theta_sd             =   3.8014036363165E-13
(PID.TID 0000.0001) %MON dynstat_theta_del2           =   0.0000000000000E+00
(PID.TID 0000.0001) %MON dynstat_salt_max             =   3.0000000000000E+01
(PID.TID 0000.0001) %MON dynstat_salt_min             =   3.0000000000000E+01
(PID.TID 0000.0001) %MON dynstat_salt_mean            =   2.9999999999999E+01
(PID.TID 0000.0001) %MON dynstat_salt_sd              =   5.5777604757167E-13
(PID.TID 0000.0001) %MON dynstat_salt_del2            =   0.0000000000000E+00
(PID.TID 0000.0001) %MON trAdv_CFL_u_max              =   1.0202648369233E-02
(PID.TID 0000.0001) %MON trAdv_CFL_v_max              =   8.6732440596401E-03
(PID.TID 0000.0001) %MON trAdv_CFL_w_max              =   3.4939986720143E-09
(PID.TID 0000.0001) %MON advcfl_uvel_max              =   1.0203734443721E-02
(PID.TID 0000.0001) %MON advcfl_vvel_max              =   8.6848324316601E-03
(PID.TID 0000.0001) %MON advcfl_wvel_max              =   6.3972305534407E-09
(PID.TID 0000.0001) %MON advcfl_W_hf_max              =   0.0000000000000E+00
(PID.TID 0000.0001) %MON pe_b_mean                    =   1.9497993137373E-05
(PID.TID 0000.0001) %MON ke_max                       =   1.4487431735867E-02
(PID.TID 0000.0001) %MON ke_mean                      =   2.8603485093121E-03
(PID.TID 0000.0001) %MON ke_vol                       =   6.8893493896486E+15
(PID.TID 0000.0001) %MON vort_r_min                   =  -1.0613805126946E-06
(PID.TID 0000.0001) %MON vort_r_max                   =   3.6489613716752E-06
(PID.TID 0000.0001) %MON vort_a_mean                  =   1.0600000000000E-04
(PID.TID 0000.0001) %MON vort_a_sd                    =   3.5760199780813E-06
(PID.TID 0000.0001) %MON vort_p_mean                  =   1.1652272308690E-04
(PID.TID 0000.0001) %MON vort_p_sd                    =   4.1792395874087E-05
(PID.TID 0000.0001) %MON surfExpan_theta_mean         =   6.5845519160569E-20
(PID.TID 0000.0001) %MON surfExpan_salt_mean          =   9.8763227226092E-20
(PID.TID 0000.0001) // =======================================================
(PID.TID 0000.0001) // End MONITOR dynamic field statistics
(PID.TID 0000.0001) // =======================================================
 cg2d: Sum(rhs),rhsMax =  -7.28707649814606E-03  2.22581123160292E-01
 cg2d: Sum(rhs),rhsMax =  -7.28788445418216E-03  2.22587053511254E-01
 cg2d: Sum(rhs),rhsMax =  -7.28869266305218E-03  2.22592983843387E-01
 cg2d: Sum(rhs),rhsMax =  -7.28950112351977E-03  2.22598914152339E-01
 cg2d: Sum(rhs),rhsMax =  -7.29030983445351E-03  2.22604844433754E-01
 cg2d: Sum(rhs),rhsMax =  -7.29111879311714E-03  2.22610774683269E-01
 cg2d: Sum(rhs),rhsMax =  -7.29192799828288E-03  2.22616704896530E-01
 cg2d: Sum(rhs),rhsMax =  -7.29273744828007E-03  2.22622635069172E-01
 cg2d: Sum(rhs),rhsMax =  -7.29354714086429E-03  2.22628565196831E-01
 cg2d: Sum(rhs),rhsMax =  -7.29435707491307E-03  2.22634495275139E-01
 cg2d: Sum(rhs),rhsMax =  -7.29516724834127E-03  2.22640425299734E-01
 cg2d: Sum(rhs),rhsMax =  -7.29597765978976E-03  2.22646355266237E-01
 cg2d: Sum(rhs),rhsMax =  -7.29678830749451E-03  2.22652285170284E-01
 cg2d: Sum(rhs),rhsMax =  -7.29759918949013E-03  2.22658215007497E-01
 cg2d: Sum(rhs),rhsMax =  -7.29841030418012E-03  2.22664144773505E-01
 cg2d: Sum(rhs),rhsMax =  -7.29922165081881E-03  2.22670074463926E-01
 cg2d: Sum(rhs),rhsMax =  -7.30003322629937E-03  2.22676004074388E-01
 cg2d: Sum(rhs),rhsMax =  -7.30084503016390E-03  2.22681933600506E-01
 cg2d: Sum(rhs),rhsMax =  -7.30165706035475E-03  2.22687863037895E-01
 cg2d: Sum(rhs),rhsMax =  -7.30246931537074E-03  2.22693792382183E-01
 cg2d: Sum(rhs),rhsMax =  -7.30328179379661E-03  2.22699721628973E-01
 cg2d: Sum(rhs),rhsMax =  -7.30409449372922E-03  2.22705650773884E-01
 cg2d: Sum(rhs),rhsMax =  -7.30490741381581E-03  2.22711579812527E-01
 cg2d: Sum(rhs),rhsMax =  -7.30572055274125E-03  2.22717508740508E-01
 cg2d: Sum(rhs),rhsMax =  -7.30653390868784E-03  2.22723437553440E-01
 cg2d: Sum(rhs),rhsMax =  -7.30734748016951E-03  2.22729366246927E-01
 cg2d: Sum(rhs),rhsMax =  -7.30816126590649E-03  2.22735294816582E-01
 cg2d: Sum(rhs),rhsMax =  -7.30897526409652E-03  2.22741223257997E-01
 cg2d: Sum(rhs),rhsMax =  -7.30978947380614E-03  2.22747151566778E-01
 cg2d: Sum(rhs),rhsMax =  -7.31060389288278E-03  2.22753079738530E-01
 cg2d: Sum(rhs),rhsMax =  -7.31141851986324E-03  2.22759007768846E-01
 cg2d: Sum(rhs),rhsMax =  -7.31223335446854E-03  2.22764935653329E-01
 cg2d: Sum(rhs),rhsMax =  -7.31304839414136E-03  2.22770863387572E-01
 cg2d: Sum(rhs),rhsMax =  -7.31386363791533E-03  2.22776790967172E-01
 cg2d: Sum(rhs),rhsMax =  -7.31467908453913E-03  2.22782718387723E-01
 cg2d: Sum(rhs),rhsMax =  -7.31549473278932E-03  2.22788645644814E-01
 cg2d: Sum(rhs),rhsMax =  -7.31631058058800E-03  2.22794572734036E-01
 cg2d: Sum(rhs),rhsMax =  -7.31712662719019E-03  2.22800499650985E-01
 cg2d: Sum(rhs),rhsMax =  -7.31794287112260E-03  2.22806426391238E-01
 cg2d: Sum(rhs),rhsMax =  -7.31875931114382E-03  2.22812352950392E-01
 cg2d: Sum(rhs),rhsMax =  -7.31957594558097E-03  2.22818279324032E-01
 cg2d: Sum(rhs),rhsMax =  -7.32039277340884E-03  2.22824205507730E-01
 cg2d: Sum(rhs),rhsMax =  -7.32120979316391E-03  2.22830131497084E-01
 cg2d: Sum(rhs),rhsMax =  -7.32202700432275E-03  2.22836057287670E-01
 cg2d: Sum(rhs),rhsMax =  -7.32284440470670E-03  2.22841982875069E-01
 cg2d: Sum(rhs),rhsMax =  -7.32366199356857E-03  2.22847908254855E-01
 cg2d: Sum(rhs),rhsMax =  -7.32447976967040E-03  2.22853833422617E-01
 cg2d: Sum(rhs),rhsMax =  -7.32529773166829E-03  2.22859758373923E-01
 cg2d: Sum(rhs),rhsMax =  -7.32611587863906E-03  2.22865683104350E-01
 cg2d: Sum(rhs),rhsMax =  -7.32693420908238E-03  2.22871607609476E-01
 cg2d: Sum(rhs),rhsMax =  -7.32775272176273E-03  2.22877531884874E-01
 cg2d: Sum(rhs),rhsMax =  -7.32857141599601E-03  2.22883455926121E-01
 cg2d: Sum(rhs),rhsMax =  -7.32939029021890E-03  2.22889379728776E-01
 cg2d: Sum(rhs),rhsMax =  -7.33020934336923E-03  2.22895303288420E-01
 cg2d: Sum(rhs),rhsMax =  -7.33102857492235E-03  2.22901226600621E-01
 cg2d: Sum(rhs),rhsMax =  -7.33184798258301E-03  2.22907149660948E-01
 cg2d: Sum(rhs),rhsMax =  -7.33266756619366E-03  2.22913072464961E-01
 cg2d: Sum(rhs),rhsMax =  -7.33348732458574E-03  2.22918995008235E-01
 cg2d: Sum(rhs),rhsMax =  -7.33430725641216E-03  2.22924917286333E-01
 cg2d: Sum(rhs),rhsMax =  -7.33512736073107E-03  2.22930839294823E-01
 cg2d: Sum(rhs),rhsMax =  -7.33594763684546E-03  2.22936761029258E-01
 cg2d: Sum(rhs),rhsMax =  -7.33676808333400E-03  2.22942682485208E-01
 cg2d: Sum(rhs),rhsMax =  -7.33758869919908E-03  2.22948603658237E-01
 cg2d: Sum(rhs),rhsMax =  -7.33840948334144E-03  2.22954524543908E-01
 cg2d: Sum(rhs),rhsMax =  -7.33923043540773E-03  2.22960445137775E-01
 cg2d: Sum(rhs),rhsMax =  -7.34005155389863E-03  2.22966365435399E-01
 cg2d: Sum(rhs),rhsMax =  -7.34087283791091E-03  2.22972285432334E-01
 cg2d: Sum(rhs),rhsMax =  -7.34169428642724E-03  2.22978205124151E-01
 cg2d: Sum(rhs),rhsMax =  -7.34251589855514E-03  2.22984124506392E-01
 cg2d: Sum(rhs),rhsMax =  -7.34333767361424E-03  2.22990043574622E-01
 cg2d: Sum(rhs),rhsMax =  -7.34415961057400E-03  2.22995962324395E-01
 cg2d: Sum(rhs),rhsMax =  -7.34498170901197E-03  2.23001880751269E-01
(PID.TID 0000.0001)      cg2d_init_res =   3.58250332782937E-04
(PID.TID 0000.0001)      cg2d_iters(min,last) =      -1      67
(PID.TID 0000.0001)      cg2d_last_res =   9.78865444293056E-08
(PID.TID 0000.0001) // =======================================================
(PID.TID 0000.0001) // Begin MONITOR dynamic field statistics
(PID.TID 0000.0001) // =======================================================
(PID.TID 0000.0001) %MON time_tsnumber                =                 17352
(PID.TID 0000.0001) %MON time_secondsf                =   2.0822400000000E+07
(PID.TID 0000.0001) %MON dynstat_eta_max              =   3.5942560259933E-01
(PID.TID 0000.0001) %MON dynstat_eta_min              =  -1.1395177447567E-01
(PID.TID 0000.0001) %MON dynstat_eta_mean             =   8.1866608527091E-06
(PID.TID 0000.0001) %MON dynstat_eta_sd               =   1.3827562865947E-01
(PID.TID 0000.0001) %MON dynstat_eta_del2             =   3.5409496272246E-05
(PID.TID 0000.0001) %MON dynstat_uvel_max             =   1.7040056085944E-01
(PID.TID 0000.0001) %MON dynstat_uvel_min             =  -1.3477357664512E-01
(PID.TID 0000.0001) %MON dynstat_uvel_mean            =  -1.8586074323302E-08
(PID.TID 0000.0001) %MON dynstat_uvel_sd              =   5.6391490142204E-02
(PID.TID 0000.0001) %MON dynstat_uvel_del2            =   7.5591571989283E-05
(PID.TID 0000.0001) %MON dynstat_vvel_max             =   1.1787226303535E-01
(PID.TID 0000.0001) %MON dynstat_vvel_min             =  -1.4508311969065E-01
(PID.TID 0000.0001) %MON dynstat_vvel_mean            =   1.2945242510355E-07
(PID.TID 0000.0001) %MON dynstat_vvel_sd              =   5.1757090272242E-02
(PID.TID 0000.0001) %MON dynstat_vvel_del2            =   3.7123964098603E-05
(PID.TID 0000.0001) %MON dynstat_wvel_max             =   1.3258824439254E-08
(PID.TID 0000.0001) %MON dynstat_wvel_min             =  -5.7190788786738E-09
(PID.TID 0000.0001) %MON dynstat_wvel_mean            =   3.3673086363706E-21
(PID.TID 0000.0001) %MON dynstat_wvel_sd              =   4.4334435594213E-09
(PID.TID 0000.0001) %MON dynstat_wvel_del2            =   1.2788184607642E-12
(PID.TID 0000.0001) %MON dynstat_theta_max            =   2.0000000000000E+01
(PID.TID 0000.0001) %MON dynstat_theta_min            =   2.0000000000000E+01
(PID.TID 0000.0001) %MON dynstat_theta_mean           =   2.0000000000000E+01
(PID.TID 0000.0001) %MON dynstat_theta_sd             =   3.8014036363165E-13
(PID.TID 0000.0001) %MON dynstat_theta_del2           =   0.0000000000000E+00
(PID.TID 0000.0001) %MON dynstat_salt_max             =   3.0000000000000E+01
(PID.TID 0000.0001) %MON dynstat_salt_min             =   3.0000000000000E+01
(PID.TID 0000.0001) %MON dynstat_salt_mean            =   2.9999999999999E+01
(PID.TID 0000.0001) %MON dynstat_salt_sd              =   5.5777604757167E-13
(PID.TID 0000.0001) %MON dynstat_salt_del2            =   0.0000000000000E+00
(PID.TID 0000.0001) %MON trAdv_CFL_u_max              =   1.0222941785238E-02
(PID.TID 0000.0001) %MON trAdv_CFL_v_max              =   8.6933719218421E-03
(PID.TID 0000.0001) %MON trAdv_CFL_w_max              =   3.4763799512023E-09
(PID.TID 0000.0001) %MON advcfl_uvel_max              =   1.0224033651566E-02
(PID.TID 0000.0001) %MON advcfl_vvel_max              =   8.7049871814392E-03
(PID.TID 0000.0001) %MON advcfl_wvel_max              =   6.3642357308418E-09
(PID.TID 0000.0001) %MON advcfl_W_hf_max              =   0.0000000000000E+00
(PID.TID 0000.0001) %MON pe_b_mean                    =   1.9602640634209E-05
(PID.TID 0000.0001) %MON ke_max                       =   1.4545145450170E-02
(PID.TID 0000.0001) %MON ke_mean                      =   2.8755306967808E-03
(PID.TID 0000.0001) %MON ke_vol                       =   6.8893493896486E+15
(PID.TID 0000.0001) %MON vort_r_min                   =  -1.0645284230381E-06
(PID.TID 0000.0001) %MON vort_r_max                   =   3.6556432566000E-06
(PID.TID 0000.0001) %MON vort_a_mean                  =   1.0600000000000E-04
(PID.TID 0000.0001) %MON vort_a_sd                    =   3.5762538367555E-06
(PID.TID 0000.0001) %MON vort_p_mean                  =   1.1652272308690E-04
(PID.TID 0000.0001) %MON vort_p_sd                    =   4.1792457906962E-05
(PID.TID 0000.0001) %MON surfExpan_theta_mean         =   6.7349977446914E-20
(PID.TID 0000.0001) %MON surfExpan_salt_mean          =   1.0101233429951E-19
(PID.TID 0000.0001) // =======================================================
(PID.TID 0000.0001) // End MONITOR dynamic field statistics
(PID.TID 0000.0001) // =======================================================
 cg2d: Sum(rhs),rhsMax =  -7.34580396705757E-03  2.23007798850788E-01
 cg2d: Sum(rhs),rhsMax =  -7.34662638451476E-03  2.23013716618516E-01
 cg2d: Sum(rhs),rhsMax =  -7.34744896053570E-03  2.23019634049999E-01
 cg2d: Sum(rhs),rhsMax =  -7.34827169411312E-03  2.23025551140796E-01
 cg2d: Sum(rhs),rhsMax =  -7.34909458418997E-03  2.23031467886451E-01
 cg2d: Sum(rhs),rhsMax =  -7.34991763042704E-03  2.23037384282520E-01
 cg2d: Sum(rhs),rhsMax =  -7.35074083182310E-03  2.23043300324549E-01
 cg2d: Sum(rhs),rhsMax =  -7.35156418737571E-03  2.23049216008093E-01
 cg2d: Sum(rhs),rhsMax =  -7.35238769667670E-03  2.23055131328698E-01
 cg2d: Sum(rhs),rhsMax =  -7.35321135891822E-03  2.23061046281913E-01
 cg2d: Sum(rhs),rhsMax =  -7.35403517296180E-03  2.23066960863286E-01
 cg2d: Sum(rhs),rhsMax =  -7.35485913848780E-03  2.23072875068361E-01
 cg2d: Sum(rhs),rhsMax =  -7.35568325425574E-03  2.23078788892696E-01
 cg2d: Sum(rhs),rhsMax =  -7.35650752031037E-03  2.23084702331825E-01
 cg2d: Sum(rhs),rhsMax =  -7.35733193506240E-03  2.23090615381305E-01
 cg2d: Sum(rhs),rhsMax =  -7.35815649868062E-03  2.23096528036673E-01
 cg2d: Sum(rhs),rhsMax =  -7.35898120995779E-03  2.23102440293484E-01
 cg2d: Sum(rhs),rhsMax =  -7.35980606835664E-03  2.23108352147270E-01
 cg2d: Sum(rhs),rhsMax =  -7.36063107327939E-03  2.23114263593586E-01
 cg2d: Sum(rhs),rhsMax =  -7.36145622414683E-03  2.23120174627975E-01
 cg2d: Sum(rhs),rhsMax =  -7.36228152008749E-03  2.23126085245977E-01
 cg2d: Sum(rhs),rhsMax =  -7.36310696062367E-03  2.23131995443140E-01
 cg2d: Sum(rhs),rhsMax =  -7.36393254475933E-03  2.23137905215003E-01
 cg2d: Sum(rhs),rhsMax =  -7.36475827321312E-03  2.23143814557118E-01
 cg2d: Sum(rhs),rhsMax =  -7.36558414383504E-03  2.23149723465014E-01
 cg2d: Sum(rhs),rhsMax =  -7.36641015685588E-03  2.23155631934244E-01
 cg2d: Sum(rhs),rhsMax =  -7.36723631113164E-03  2.23161539960345E-01
 cg2d: Sum(rhs),rhsMax =  -7.36806260703396E-03  2.23167447538869E-01
 cg2d: Sum(rhs),rhsMax =  -7.36888904319743E-03  2.23173354665341E-01
 cg2d: Sum(rhs),rhsMax =  -7.36971561923203E-03  2.23179261335318E-01
 cg2d: Sum(rhs),rhsMax =  -7.37054233500264E-03  2.23185167544334E-01
 cg2d: Sum(rhs),rhsMax =  -7.37136918964862E-03  2.23191073287934E-01
 cg2d: Sum(rhs),rhsMax =  -7.37219618288466E-03  2.23196978561661E-01
 cg2d: Sum(rhs),rhsMax =  -7.37302331408347E-03  2.23202883361044E-01
 cg2d: Sum(rhs),rhsMax =  -7.37385058274516E-03  2.23208787681645E-01
 cg2d: Sum(rhs),rhsMax =  -7.37467798876522E-03  2.23214691518987E-01
 cg2d: Sum(rhs),rhsMax =  -7.37550553088005E-03  2.23220594868620E-01
 cg2d: Sum(rhs),rhsMax =  -7.37633320919958E-03  2.23226497726085E-01
 cg2d: Sum(rhs),rhsMax =  -7.37716102351783E-03  2.23232400086918E-01
 cg2d: Sum(rhs),rhsMax =  -7.37798897334190E-03  2.23238301946668E-01
 cg2d: Sum(rhs),rhsMax =  -7.37881705770461E-03  2.23244203300867E-01
 cg2d: Sum(rhs),rhsMax =  -7.37964527661981E-03  2.23250104145063E-01
 cg2d: Sum(rhs),rhsMax =  -7.38047362982012E-03  2.23256004474794E-01
 cg2d: Sum(rhs),rhsMax =  -7.38130211676039E-03  2.23261904285607E-01
 cg2d: Sum(rhs),rhsMax =  -7.38213073726095E-03  2.23267803573034E-01
 cg2d: Sum(rhs),rhsMax =  -7.38295949029217E-03  2.23273702332622E-01
 cg2d: Sum(rhs),rhsMax =  -7.38378837596839E-03  2.23279600559917E-01
 cg2d: Sum(rhs),rhsMax =  -7.38461739380817E-03  2.23285498250455E-01
 cg2d: Sum(rhs),rhsMax =  -7.38544654392672E-03  2.23291395399779E-01
 cg2d: Sum(rhs),rhsMax =  -7.38627582526971E-03  2.23297292003431E-01
 cg2d: Sum(rhs),rhsMax =  -7.38710523821800E-03  2.23303188056954E-01
 cg2d: Sum(rhs),rhsMax =  -7.38793478191419E-03  2.23309083555894E-01
 cg2d: Sum(rhs),rhsMax =  -7.38876445644713E-03  2.23314978495789E-01
 cg2d: Sum(rhs),rhsMax =  -7.38959426178911E-03  2.23320872872182E-01
 cg2d: Sum(rhs),rhsMax =  -7.39042419685382E-03  2.23326766680624E-01
 cg2d: Sum(rhs),rhsMax =  -7.39125426194843E-03  2.23332659916650E-01
 cg2d: Sum(rhs),rhsMax =  -7.39208445653017E-03  2.23338552575812E-01
 cg2d: Sum(rhs),rhsMax =  -7.39291478029688E-03  2.23344444653647E-01
 cg2d: Sum(rhs),rhsMax =  -7.39374523331823E-03  2.23350336145704E-01
 cg2d: Sum(rhs),rhsMax =  -7.39457581507605E-03  2.23356227047531E-01
 cg2d: Sum(rhs),rhsMax =  -7.39540652589052E-03  2.23362117354666E-01
 cg2d: Sum(rhs),rhsMax =  -7.39623736475590E-03  2.23368007062661E-01
 cg2d: Sum(rhs),rhsMax =  -7.39706833175288E-03  2.23373896167062E-01
 cg2d: Sum(rhs),rhsMax =  -7.39789942714116E-03  2.23379784663414E-01
 cg2d: Sum(rhs),rhsMax =  -7.39873065023301E-03  2.23385672547267E-01
 cg2d: Sum(rhs),rhsMax =  -7.39956200115740E-03  2.23391559814162E-01
 cg2d: Sum(rhs),rhsMax =  -7.40039347955761E-03  2.23397446459653E-01
 cg2d: Sum(rhs),rhsMax =  -7.40122508481674E-03  2.23403332479291E-01
 cg2d: Sum(rhs),rhsMax =  -7.40205681757612E-03  2.23409217868626E-01
 cg2d: Sum(rhs),rhsMax =  -7.40288867732166E-03  2.23415102623201E-01
 cg2d: Sum(rhs),rhsMax =  -7.40372066414055E-03  2.23420986738573E-01
 cg2d: Sum(rhs),rhsMax =  -7.40455277744186E-03  2.23426870210289E-01
(PID.TID 0000.0001)      cg2d_init_res =   3.54917363869016E-04
(PID.TID 0000.0001)      cg2d_iters(min,last) =      -1      67
(PID.TID 0000.0001)      cg2d_last_res =   9.86029786100723E-08
(PID.TID 0000.0001) // =======================================================
(PID.TID 0000.0001) // Begin MONITOR dynamic field statistics
(PID.TID 0000.0001) // =======================================================
(PID.TID 0000.0001) %MON time_tsnumber                =                 17424
(PID.TID 0000.0001) %MON time_secondsf                =   2.0908800000000E+07
(PID.TID 0000.0001) %MON dynstat_eta_max              =   3.6051030510372E-01
(PID.TID 0000.0001) %MON dynstat_eta_min              =  -1.1416972616160E-01
(PID.TID 0000.0001) %MON dynstat_eta_mean             =   8.2687886895042E-06
(PID.TID 0000.0001) %MON dynstat_eta_sd               =   1.3864305853821E-01
(PID.TID 0000.0001) %MON dynstat_eta_del2             =   3.5487866618293E-05
(PID.TID 0000.0001) %MON dynstat_uvel_max             =   1.7074349399482E-01
(PID.TID 0000.0001) %MON dynstat_uvel_min             =  -1.3521190398851E-01
(PID.TID 0000.0001) %MON dynstat_uvel_mean            =  -1.0113478916602E-08
(PID.TID 0000.0001) %MON dynstat_uvel_sd              =   5.6544652454960E-02
(PID.TID 0000.0001) %MON dynstat_uvel_del2            =   7.5660111740321E-05
(PID.TID 0000.0001) %MON dynstat_vvel_max             =   1.1820834651981E-01
(PID.TID 0000.0001) %MON dynstat_vvel_min             =  -1.4542019712774E-01
(PID.TID 0000.0001) %MON dynstat_vvel_mean            =   1.2807474846157E-07
(PID.TID 0000.0001) %MON dynstat_vvel_sd              =   5.1888203824146E-02
(PID.TID 0000.0001) %MON dynstat_vvel_del2            =   3.7148613246459E-05
(PID.TID 0000.0001) %MON dynstat_wvel_max             =   1.3205612708698E-08
(PID.TID 0000.0001) %MON dynstat_wvel_min             =  -5.6936847589895E-09
(PID.TID 0000.0001) %MON dynstat_wvel_mean            =  -1.1434703487288E-20
(PID.TID 0000.0001) %MON dynstat_wvel_sd              =   4.4117288627576E-09
(PID.TID 0000.0001) %MON dynstat_wvel_del2            =   1.2759154069647E-12
(PID.TID 0000.0001) %MON dynstat_theta_max            =   2.0000000000000E+01
(PID.TID 0000.0001) %MON dynstat_theta_min            =   2.0000000000000E+01
(PID.TID 0000.0001) %MON dynstat_theta_mean           =   2.0000000000000E+01
(PID.TID 0000.0001) %MON dynstat_theta_sd             =   3.8014036363165E-13
(PID.TID 0000.0001) %MON dynstat_theta_del2           =   0.0000000000000E+00
(PID.TID 0000.0001) %MON dynstat_salt_max             =   3.0000000000000E+01
(PID.TID 0000.0001) %MON dynstat_salt_min             =   3.0000000000000E+01
(PID.TID 0000.0001) %MON dynstat_salt_mean            =   2.9999999999999E+01
(PID.TID 0000.0001) %MON dynstat_salt_sd              =   5.5777604757167E-13
(PID.TID 0000.0001) %MON dynstat_salt_del2            =   0.0000000000000E+00
(PID.TID 0000.0001) %MON trAdv_CFL_u_max              =   1.0243512655138E-02
(PID.TID 0000.0001) %MON trAdv_CFL_v_max              =   8.7135689662715E-03
(PID.TID 0000.0001) %MON trAdv_CFL_w_max              =   3.4618269740865E-09
(PID.TID 0000.0001) %MON advcfl_uvel_max              =   1.0244609639689E-02
(PID.TID 0000.0001) %MON advcfl_vvel_max              =   8.7252118276642E-03
(PID.TID 0000.0001) %MON advcfl_wvel_max              =   6.3386941001751E-09
(PID.TID 0000.0001) %MON advcfl_W_hf_max              =   0.0000000000000E+00
(PID.TID 0000.0001) %MON pe_b_mean                    =   1.9706956419740E-05
(PID.TID 0000.0001) %MON ke_max                       =   1.4603785276186E-02
(PID.TID 0000.0001) %MON ke_mean                      =   2.8906901451646E-03
(PID.TID 0000.0001) %MON ke_vol                       =   6.8893493896486E+15
(PID.TID 0000.0001) %MON vort_r_min                   =  -1.0676130720277E-06
(PID.TID 0000.0001) %MON vort_r_max                   =   3.6624140706731E-06
(PID.TID 0000.0001) %MON vort_a_mean                  =   1.0600000000000E-04
(PID.TID 0000.0001) %MON vort_a_sd                    =   3.5764879546840E-06
(PID.TID 0000.0001) %MON vort_p_mean                  =   1.1652272308690E-04
(PID.TID 0000.0001) %MON vort_p_sd                    =   4.1792515328302E-05
(PID.TID 0000.0001) %MON surfExpan_theta_mean         =  -2.2866338699067E-19
(PID.TID 0000.0001) %MON surfExpan_salt_mean          =  -3.4300013446793E-19
(PID.TID 0000.0001) // =======================================================
(PID.TID 0000.0001) // End MONITOR dynamic field statistics
(PID.TID 0000.0001) // =======================================================
 cg2d: Sum(rhs),rhsMax =  -7.40538501722998E-03  2.23432753033902E-01
 cg2d: Sum(rhs),rhsMax =  -7.40621738371379E-03  2.23438635204965E-01
 cg2d: Sum(rhs),rhsMax =  -7.40704987634046E-03  2.23444516719032E-01
 cg2d: Sum(rhs),rhsMax =  -7.40788249521888E-03  2.23450397571657E-01
 cg2d: Sum(rhs),rhsMax =  -7.40871524046152E-03  2.23456277758389E-01
 cg2d: Sum(rhs),rhsMax =  -7.40954811153886E-03  2.23462157274794E-01
 cg2d: Sum(rhs),rhsMax =  -7.41038110884202E-03  2.23468036116416E-01
 cg2d: Sum(rhs),rhsMax =  -7.41121423189123E-03  2.23473914278819E-01
 cg2d: Sum(rhs),rhsMax =  -7.41204748038795E-03  2.23479791757555E-01
 cg2d: Sum(rhs),rhsMax =  -7.41288085496162E-03  2.23485668548188E-01
 cg2d: Sum(rhs),rhsMax =  -7.41371435501930E-03  2.23491544646273E-01
 cg2d: Sum(rhs),rhsMax =  -7.41454798096185E-03  2.23497420047375E-01
 cg2d: Sum(rhs),rhsMax =  -7.41538173208121E-03  2.23503294747043E-01
 cg2d: Sum(rhs),rhsMax =  -7.41621560878130E-03  2.23509168740850E-01
 cg2d: Sum(rhs),rhsMax =  -7.41704961140566E-03  2.23515042024353E-01
 cg2d: Sum(rhs),rhsMax =  -7.41788373918233E-03  2.23520914593115E-01
 cg2d: Sum(rhs),rhsMax =  -7.41871799218111E-03  2.23526786442700E-01
 cg2d: Sum(rhs),rhsMax =  -7.41955237094409E-03  2.23532657568677E-01
 cg2d: Sum(rhs),rhsMax =  -7.42038687491817E-03  2.23538527966609E-01
 cg2d: Sum(rhs),rhsMax =  -7.42122150450414E-03  2.23544397632063E-01
 cg2d: Sum(rhs),rhsMax =  -7.42205625935581E-03  2.23550266560606E-01
 cg2d: Sum(rhs),rhsMax =  -7.42289113980709E-03  2.23556134747807E-01
 cg2d: Sum(rhs),rhsMax =  -7.42372614566614E-03  2.23562002189234E-01
 cg2d: Sum(rhs),rhsMax =  -7.42456127685820E-03  2.23567868880464E-01
 cg2d: Sum(rhs),rhsMax =  -7.42539653313684E-03  2.23573734817060E-01
 cg2d: Sum(rhs),rhsMax =  -7.42623191519027E-03  2.23579599994599E-01
 cg2d: Sum(rhs),rhsMax =  -7.42706742285925E-03  2.23585464408660E-01
 cg2d: Sum(rhs),rhsMax =  -7.42790305592940E-03  2.23591328054814E-01
 cg2d: Sum(rhs),rhsMax =  -7.42873881441247E-03  2.23597190928631E-01
 cg2d: Sum(rhs),rhsMax =  -7.42957469866862E-03  2.23603053025700E-01
 cg2d: Sum(rhs),rhsMax =  -7.43041070862113E-03  2.23608914341589E-01
 cg2d: Sum(rhs),rhsMax =  -7.43124684420720E-03  2.23614774871886E-01
 cg2d: Sum(rhs),rhsMax =  -7.43208310548339E-03  2.23620634612164E-01
 cg2d: Sum(rhs),rhsMax =  -7.43291949268935E-03  2.23626493558014E-01
 cg2d: Sum(rhs),rhsMax =  -7.43375600598542E-03  2.23632351705011E-01
 cg2d: Sum(rhs),rhsMax =  -7.43459264496315E-03  2.23638209048740E-01
 cg2d: Sum(rhs),rhsMax =  -7.43542940994653E-03  2.23644065584794E-01
 cg2d: Sum(rhs),rhsMax =  -7.43626630133092E-03  2.23649921308753E-01
 cg2d: Sum(rhs),rhsMax =  -7.43710331884646E-03  2.23655776216205E-01
 cg2d: Sum(rhs),rhsMax =  -7.43794046254758E-03  2.23661630302745E-01
 cg2d: Sum(rhs),rhsMax =  -7.43877773240905E-03  2.23667483563962E-01
 cg2d: Sum(rhs),rhsMax =  -7.43961512892150E-03  2.23673335995444E-01
 cg2d: Sum(rhs),rhsMax =  -7.44045265188921E-03  2.23679187592792E-01
 cg2d: Sum(rhs),rhsMax =  -7.44129030167446E-03  2.23685038351589E-01
 cg2d: Sum(rhs),rhsMax =  -7.44212807805892E-03  2.23690888267447E-01
 cg2d: Sum(rhs),rhsMax =  -7.44296598138148E-03  2.23696737335954E-01
 cg2d: Sum(rhs),rhsMax =  -7.44380401128698E-03  2.23702585552708E-01
 cg2d: Sum(rhs),rhsMax =  -7.44464216834990E-03  2.23708432913317E-01
 cg2d: Sum(rhs),rhsMax =  -7.44548045291678E-03  2.23714279413373E-01
 cg2d: Sum(rhs),rhsMax =  -7.44631886464219E-03  2.23720125048491E-01
 cg2d: Sum(rhs),rhsMax =  -7.44715740392882E-03  2.23725969814266E-01
 cg2d: Sum(rhs),rhsMax =  -7.44799607032107E-03  2.23731813706313E-01
 cg2d: Sum(rhs),rhsMax =  -7.44883486433350E-03  2.23737656720234E-01
 cg2d: Sum(rhs),rhsMax =  -7.44967378665733E-03  2.23743498851636E-01
 cg2d: Sum(rhs),rhsMax =  -7.45051283690547E-03  2.23749340096140E-01
 cg2d: Sum(rhs),rhsMax =  -7.45135201480207E-03  2.23755180449351E-01
 cg2d: Sum(rhs),rhsMax =  -7.45219132065748E-03  2.23761019906888E-01
 cg2d: Sum(rhs),rhsMax =  -7.45303075483485E-03  2.23766858464364E-01
 cg2d: Sum(rhs),rhsMax =  -7.45387031753619E-03  2.23772696117396E-01
 cg2d: Sum(rhs),rhsMax =  -7.45471000912065E-03  2.23778532861612E-01
 cg2d: Sum(rhs),rhsMax =  -7.45554982926888E-03  2.23784368692619E-01
 cg2d: Sum(rhs),rhsMax =  -7.45638977816581E-03  2.23790203606054E-01
 cg2d: Sum(rhs),rhsMax =  -7.45722985584015E-03  2.23796037597527E-01
 cg2d: Sum(rhs),rhsMax =  -7.45807006272072E-03  2.23801870662675E-01
 cg2d: Sum(rhs),rhsMax =  -7.45891039814708E-03  2.23807702797119E-01
 cg2d: Sum(rhs),rhsMax =  -7.45975086352773E-03  2.23813533996500E-01
 cg2d: Sum(rhs),rhsMax =  -7.46059145822673E-03  2.23819364256433E-01
 cg2d: Sum(rhs),rhsMax =  -7.46143218248473E-03  2.23825193572560E-01
 cg2d: Sum(rhs),rhsMax =  -7.46227303687354E-03  2.23831021940515E-01
 cg2d: Sum(rhs),rhsMax =  -7.46311402090985E-03  2.23836849355938E-01
 cg2d: Sum(rhs),rhsMax =  -7.46395513497427E-03  2.23842675814467E-01
 cg2d: Sum(rhs),rhsMax =  -7.46479637915942E-03  2.23848501311733E-01
(PID.TID 0000.0001)      cg2d_init_res =   3.51541297959172E-04
(PID.TID 0000.0001)      cg2d_iters(min,last) =      -1      67
(PID.TID 0000.0001)      cg2d_last_res =   9.95129025328688E-08
(PID.TID 0000.0001) // =======================================================
(PID.TID 0000.0001) // Begin MONITOR dynamic field statistics
(PID.TID 0000.0001) // =======================================================
(PID.TID 0000.0001) %MON time_tsnumber                =                 17496
(PID.TID 0000.0001) %MON time_secondsf                =   2.0995200000000E+07
(PID.TID 0000.0001) %MON dynstat_eta_max              =   3.6159296442235E-01
(PID.TID 0000.0001) %MON dynstat_eta_min              =  -1.1438524937523E-01
(PID.TID 0000.0001) %MON dynstat_eta_mean             =   8.3517948585744E-06
(PID.TID 0000.0001) %MON dynstat_eta_sd               =   1.3900835901004E-01
(PID.TID 0000.0001) %MON dynstat_eta_del2             =   3.5566721915117E-05
(PID.TID 0000.0001) %MON dynstat_uvel_max             =   1.7109014520497E-01
(PID.TID 0000.0001) %MON dynstat_uvel_min             =  -1.3564495200793E-01
(PID.TID 0000.0001) %MON dynstat_uvel_mean            =  -2.3153317768143E-09
(PID.TID 0000.0001) %MON dynstat_uvel_sd              =   5.6696279729800E-02
(PID.TID 0000.0001) %MON dynstat_uvel_del2            =   7.5729744472694E-05
(PID.TID 0000.0001) %MON dynstat_vvel_max             =   1.1853806264952E-01
(PID.TID 0000.0001) %MON dynstat_vvel_min             =  -1.4575910887774E-01
(PID.TID 0000.0001) %MON dynstat_vvel_mean            =   1.2563817821765E-07
(PID.TID 0000.0001) %MON dynstat_vvel_sd              =   5.2019762265123E-02
(PID.TID 0000.0001) %MON dynstat_vvel_del2            =   3.7171172636609E-05
(PID.TID 0000.0001) %MON dynstat_wvel_max             =   1.3138290482457E-08
(PID.TID 0000.0001) %MON dynstat_wvel_min             =  -5.6725740319234E-09
(PID.TID 0000.0001) %MON dynstat_wvel_mean            =  -8.5537623009360E-22
(PID.TID 0000.0001) %MON dynstat_wvel_sd              =   4.3908213700916E-09
(PID.TID 0000.0001) %MON dynstat_wvel_del2            =   1.2732659686569E-12
(PID.TID 0000.0001) %MON dynstat_theta_max            =   2.0000000000000E+01
(PID.TID 0000.0001) %MON dynstat_theta_min            =   2.0000000000000E+01
(PID.TID 0000.0001) %MON dynstat_theta_mean           =   2.0000000000000E+01
(PID.TID 0000.0001) %MON dynstat_theta_sd             =   3.8014036363165E-13
(PID.TID 0000.0001) %MON dynstat_theta_del2           =   0.0000000000000E+00
(PID.TID 0000.0001) %MON dynstat_salt_max             =   3.0000000000000E+01
(PID.TID 0000.0001) %MON dynstat_salt_min             =   3.0000000000000E+01
(PID.TID 0000.0001) %MON dynstat_salt_mean            =   2.9999999999999E+01
(PID.TID 0000.0001) %MON dynstat_salt_sd              =   5.5777604757167E-13
(PID.TID 0000.0001) %MON dynstat_salt_del2            =   0.0000000000000E+00
(PID.TID 0000.0001) %MON trAdv_CFL_u_max              =   1.0264307383643E-02
(PID.TID 0000.0001) %MON trAdv_CFL_v_max              =   8.7338754335366E-03
(PID.TID 0000.0001) %MON trAdv_CFL_w_max              =   3.4442285633008E-09
(PID.TID 0000.0001) %MON advcfl_uvel_max              =   1.0265408712298E-02
(PID.TID 0000.0001) %MON advcfl_vvel_max              =   8.7455465326644E-03
(PID.TID 0000.0001) %MON advcfl_wvel_max              =   6.3063794315793E-09
(PID.TID 0000.0001) %MON advcfl_W_hf_max              =   0.0000000000000E+00
(PID.TID 0000.0001) %MON pe_b_mean                    =   1.9810942073758E-05
(PID.TID 0000.0001) %MON ke_max                       =   1.4663211952196E-02
(PID.TID 0000.0001) %MON ke_mean                      =   2.9058267811600E-03
(PID.TID 0000.0001) %MON ke_vol                       =   6.8893493896486E+15
(PID.TID 0000.0001) %MON vort_r_min                   =  -1.0706440831778E-06
(PID.TID 0000.0001) %MON vort_r_max                   =   3.6692566535958E-06
(PID.TID 0000.0001) %MON vort_a_mean                  =   1.0600000000000E-04
(PID.TID 0000.0001) %MON vort_a_sd                    =   3.5767219760754E-06
(PID.TID 0000.0001) %MON vort_p_mean                  =   1.1652272308690E-04
(PID.TID 0000.0001) %MON vort_p_sd                    =   4.1792567770075E-05
(PID.TID 0000.0001) %MON surfExpan_theta_mean         =  -1.7107974296475E-20
(PID.TID 0000.0001) %MON surfExpan_salt_mean          =  -2.5655645509283E-20
(PID.TID 0000.0001) // =======================================================
(PID.TID 0000.0001) // End MONITOR dynamic field statistics
(PID.TID 0000.0001) // =======================================================
 cg2d: Sum(rhs),rhsMax =  -7.46563775383151E-03  2.23854325843390E-01
 cg2d: Sum(rhs),rhsMax =  -7.46647925894718E-03  2.23860149405080E-01
 cg2d: Sum(rhs),rhsMax =  -7.46732089455556E-03  2.23865971992442E-01
 cg2d: Sum(rhs),rhsMax =  -7.46816266111583E-03  2.23871793601131E-01
 cg2d: Sum(rhs),rhsMax =  -7.46900455874884E-03  2.23877614226800E-01
 cg2d: Sum(rhs),rhsMax =  -7.46984658716938E-03  2.23883433865090E-01
 cg2d: Sum(rhs),rhsMax =  -7.47068874698735E-03  2.23889252511664E-01
 cg2d: Sum(rhs),rhsMax =  -7.47153103807361E-03  2.23895070162174E-01
 cg2d: Sum(rhs),rhsMax =  -7.47237346072380E-03  2.23900886812284E-01
 cg2d: Sum(rhs),rhsMax =  -7.47321601487641E-03  2.23906702457649E-01
 cg2d: Sum(rhs),rhsMax =  -7.47405870110373E-03  2.23912517093924E-01
 cg2d: Sum(rhs),rhsMax =  -7.47490151895947E-03  2.23918330716790E-01
 cg2d: Sum(rhs),rhsMax =  -7.47574446902219E-03  2.23924143321896E-01
 cg2d: Sum(rhs),rhsMax =  -7.47658755115648E-03  2.23929954904922E-01
 cg2d: Sum(rhs),rhsMax =  -7.47743076573644E-03  2.23935765461537E-01
 cg2d: Sum(rhs),rhsMax =  -7.47827411274862E-03  2.23941574987405E-01
 cg2d: Sum(rhs),rhsMax =  -7.47911759249720E-03  2.23947383478216E-01
 cg2d: Sum(rhs),rhsMax =  -7.47996120510542E-03  2.23953190929633E-01
 cg2d: Sum(rhs),rhsMax =  -7.48080495046815E-03  2.23958997337338E-01
 cg2d: Sum(rhs),rhsMax =  -7.48164882885206E-03  2.23964802697017E-01
 cg2d: Sum(rhs),rhsMax =  -7.48249284010596E-03  2.23970607004352E-01
 cg2d: Sum(rhs),rhsMax =  -7.48333698525845E-03  2.23976410255028E-01
 cg2d: Sum(rhs),rhsMax =  -7.48418126335407E-03  2.23982212444730E-01
 cg2d: Sum(rhs),rhsMax =  -7.48502567539380E-03  2.23988013569156E-01
 cg2d: Sum(rhs),rhsMax =  -7.48587022068974E-03  2.23993813623989E-01
 cg2d: Sum(rhs),rhsMax =  -7.48671490011403E-03  2.23999612604929E-01
 cg2d: Sum(rhs),rhsMax =  -7.48755971341790E-03  2.24005410507672E-01
 cg2d: Sum(rhs),rhsMax =  -7.48840466083556E-03  2.24011207327921E-01
 cg2d: Sum(rhs),rhsMax =  -7.48924974228542E-03  2.24017003061372E-01
 cg2d: Sum(rhs),rhsMax =  -7.49009495832329E-03  2.24022797703736E-01
 cg2d: Sum(rhs),rhsMax =  -7.49094030857524E-03  2.24028591250717E-01
 cg2d: Sum(rhs),rhsMax =  -7.49178579321417E-03  2.24034383698018E-01
 cg2d: Sum(rhs),rhsMax =  -7.49263141250208E-03  2.24040175041358E-01
 cg2d: Sum(rhs),rhsMax =  -7.49347716663817E-03  2.24045965276450E-01
 cg2d: Sum(rhs),rhsMax =  -7.49432305532396E-03  2.24051754399006E-01
 cg2d: Sum(rhs),rhsMax =  -7.49516907906286E-03  2.24057542404744E-01
 cg2d: Sum(rhs),rhsMax =  -7.49601523796616E-03  2.24063329289392E-01
 cg2d: Sum(rhs),rhsMax =  -7.49686153217896E-03  2.24069115048675E-01
 cg2d: Sum(rhs),rhsMax =  -7.49770796147291E-03  2.24074899678313E-01
 cg2d: Sum(rhs),rhsMax =  -7.49855452615425E-03  2.24080683174029E-01
 cg2d: Sum(rhs),rhsMax =  -7.49940122654321E-03  2.24086465531572E-01
 cg2d: Sum(rhs),rhsMax =  -7.50016424310260E-03  2.24092246831414E-01
 cg2d: Sum(rhs),rhsMax =  -7.50101134620600E-03  2.24098026792762E-01
 cg2d: Sum(rhs),rhsMax =  -7.50177463421028E-03  2.24103805812588E-01
 cg2d: Sum(rhs),rhsMax =  -7.50253826723018E-03  2.24109583554424E-01
 cg2d: Sum(rhs),rhsMax =  -7.50330201765160E-03  2.24115360154852E-01
 cg2d: Sum(rhs),rhsMax =  -7.50406592748680E-03  2.24121135595294E-01
 cg2d: Sum(rhs),rhsMax =  -7.50482999886849E-03  2.24126909869001E-01
 cg2d: Sum(rhs),rhsMax =  -7.50559423129961E-03  2.24132682970560E-01
 cg2d: Sum(rhs),rhsMax =  -7.50635862445720E-03  2.24138454894988E-01
 cg2d: Sum(rhs),rhsMax =  -7.50712317910017E-03  2.24144225637871E-01
 cg2d: Sum(rhs),rhsMax =  -7.50788789587235E-03  2.24149995195355E-01
 cg2d: Sum(rhs),rhsMax =  -7.50865277427430E-03  2.24155763563634E-01
 cg2d: Sum(rhs),rhsMax =  -7.50941781427514E-03  2.24161530738681E-01
 cg2d: Sum(rhs),rhsMax =  -7.51018301443962E-03  2.24167296716266E-01
 cg2d: Sum(rhs),rhsMax =  -7.51094837467209E-03  2.24173061492058E-01
 cg2d: Sum(rhs),rhsMax =  -7.51171389456609E-03  2.24178825061727E-01
 cg2d: Sum(rhs),rhsMax =  -7.51247957379825E-03  2.24184587421005E-01
 cg2d: Sum(rhs),rhsMax =  -7.51324541215782E-03  2.24190348565659E-01
 cg2d: Sum(rhs),rhsMax =  -7.51401140882024E-03  2.24196108491511E-01
 cg2d: Sum(rhs),rhsMax =  -7.51477756389279E-03  2.24201867194365E-01
 cg2d: Sum(rhs),rhsMax =  -7.51554387691439E-03  2.24207624670026E-01
 cg2d: Sum(rhs),rhsMax =  -7.51631034775135E-03  2.24213380914296E-01
 cg2d: Sum(rhs),rhsMax =  -7.51707697551514E-03  2.24219135922965E-01
 cg2d: Sum(rhs),rhsMax =  -7.51784376022697E-03  2.24224889691817E-01
 cg2d: Sum(rhs),rhsMax =  -7.51861070106596E-03  2.24230642216650E-01
 cg2d: Sum(rhs),rhsMax =  -7.51937779846341E-03  2.24236393493262E-01
 cg2d: Sum(rhs),rhsMax =  -7.52014505123358E-03  2.24242143517461E-01
 cg2d: Sum(rhs),rhsMax =  -7.52091245924863E-03  2.24247892285060E-01
 cg2d: Sum(rhs),rhsMax =  -7.52168002188236E-03  2.24253639791869E-01
 cg2d: Sum(rhs),rhsMax =  -7.52244773915798E-03  2.24259386033711E-01
 cg2d: Sum(rhs),rhsMax =  -7.52321561056066E-03  2.24265131006403E-01
(PID.TID 0000.0001)      cg2d_init_res =   3.48226651315317E-04
(PID.TID 0000.0001)      cg2d_iters(min,last) =      -1      68
(PID.TID 0000.0001)      cg2d_last_res =   8.68725917148178E-08
(PID.TID 0000.0001) // =======================================================
(PID.TID 0000.0001) // Begin MONITOR dynamic field statistics
(PID.TID 0000.0001) // =======================================================
(PID.TID 0000.0001) %MON time_tsnumber                =                 17568
(PID.TID 0000.0001) %MON time_secondsf                =   2.1081600000000E+07
(PID.TID 0000.0001) %MON dynstat_eta_max              =   3.6267372345157E-01
(PID.TID 0000.0001) %MON dynstat_eta_min              =  -1.1459949617892E-01
(PID.TID 0000.0001) %MON dynstat_eta_mean             =   8.4327287909230E-06
(PID.TID 0000.0001) %MON dynstat_eta_sd               =   1.3937158588741E-01
(PID.TID 0000.0001) %MON dynstat_eta_del2             =   3.5646028309933E-05
(PID.TID 0000.0001) %MON dynstat_uvel_max             =   1.7143951479027E-01
(PID.TID 0000.0001) %MON dynstat_uvel_min             =  -1.3607098128237E-01
(PID.TID 0000.0001) %MON dynstat_uvel_mean            =   4.5703057843434E-09
(PID.TID 0000.0001) %MON dynstat_uvel_sd              =   5.6846035118244E-02
(PID.TID 0000.0001) %MON dynstat_uvel_del2            =   7.5800186562099E-05
(PID.TID 0000.0001) %MON dynstat_vvel_max             =   1.1886343600296E-01
(PID.TID 0000.0001) %MON dynstat_vvel_min             =  -1.4610036798581E-01
(PID.TID 0000.0001) %MON dynstat_vvel_mean            =   1.2228440198593E-07
(PID.TID 0000.0001) %MON dynstat_vvel_sd              =   5.2152152319341E-02
(PID.TID 0000.0001) %MON dynstat_vvel_del2            =   3.7191177109678E-05
(PID.TID 0000.0001) %MON dynstat_wvel_max             =   1.3062415994646E-08
(PID.TID 0000.0001) %MON dynstat_wvel_min             =  -5.6318107855623E-09
(PID.TID 0000.0001) %MON dynstat_wvel_mean            =   9.8769906900189E-21
(PID.TID 0000.0001) %MON dynstat_wvel_sd              =   4.3705961916075E-09
(PID.TID 0000.0001) %MON dynstat_wvel_del2            =   1.2683583876054E-12
(PID.TID 0000.0001) %MON dynstat_theta_max            =   2.0000000000000E+01
(PID.TID 0000.0001) %MON dynstat_theta_min            =   2.0000000000000E+01
(PID.TID 0000.0001) %MON dynstat_theta_mean           =   2.0000000000000E+01
(PID.TID 0000.0001) %MON dynstat_theta_sd             =   3.8014036363165E-13
(PID.TID 0000.0001) %MON dynstat_theta_del2           =   0.0000000000000E+00
(PID.TID 0000.0001) %MON dynstat_salt_max             =   3.0000000000000E+01
(PID.TID 0000.0001) %MON dynstat_salt_min             =   3.0000000000000E+01
(PID.TID 0000.0001) %MON dynstat_salt_mean            =   2.9999999999999E+01
(PID.TID 0000.0001) %MON dynstat_salt_sd              =   5.5777604757167E-13
(PID.TID 0000.0001) %MON dynstat_salt_del2            =   0.0000000000000E+00
(PID.TID 0000.0001) %MON trAdv_CFL_u_max              =   1.0285266071874E-02
(PID.TID 0000.0001) %MON trAdv_CFL_v_max              =   8.7543221949907E-03
(PID.TID 0000.0001) %MON trAdv_CFL_w_max              =   3.4254602609296E-09
(PID.TID 0000.0001) %MON advcfl_uvel_max              =   1.0286370887416E-02
(PID.TID 0000.0001) %MON advcfl_vvel_max              =   8.7660220791483E-03
(PID.TID 0000.0001) %MON advcfl_wvel_max              =   6.2699596774299E-09
(PID.TID 0000.0001) %MON advcfl_W_hf_max              =   0.0000000000000E+00
(PID.TID 0000.0001) %MON pe_b_mean                    =   1.9914608761117E-05
(PID.TID 0000.0001) %MON ke_max                       =   1.4723266129264E-02
(PID.TID 0000.0001) %MON ke_mean                      =   2.9209410928160E-03
(PID.TID 0000.0001) %MON ke_vol                       =   6.8893493896486E+15
(PID.TID 0000.0001) %MON vort_r_min                   =  -1.0736306355813E-06
(PID.TID 0000.0001) %MON vort_r_max                   =   3.6761513595978E-06
(PID.TID 0000.0001) %MON vort_a_mean                  =   1.0600000000000E-04
(PID.TID 0000.0001) %MON vort_a_sd                    =   3.5769555613837E-06
(PID.TID 0000.0001) %MON vort_p_mean                  =   1.1652272308690E-04
(PID.TID 0000.0001) %MON vort_p_sd                    =   4.1792614981997E-05
(PID.TID 0000.0001) %MON surfExpan_theta_mean         =   1.9756498165830E-19
(PID.TID 0000.0001) %MON surfExpan_salt_mean          =   2.9635126451587E-19
(PID.TID 0000.0001) // =======================================================
(PID.TID 0000.0001) // End MONITOR dynamic field statistics
(PID.TID 0000.0001) // =======================================================
 cg2d: Sum(rhs),rhsMax =  -7.52398363525143E-03  2.24270874705762E-01
 cg2d: Sum(rhs),rhsMax =  -7.52475181384501E-03  2.24276617127617E-01
 cg2d: Sum(rhs),rhsMax =  -7.52552014476656E-03  2.24282358267800E-01
 cg2d: Sum(rhs),rhsMax =  -7.52628862827888E-03  2.24288098122131E-01
 cg2d: Sum(rhs),rhsMax =  -7.52705726389839E-03  2.24293836686447E-01
 cg2d: Sum(rhs),rhsMax =  -7.52782605102971E-03  2.24299573956589E-01
 cg2d: Sum(rhs),rhsMax =  -7.52859498936622E-03  2.24305309928400E-01
 cg2d: Sum(rhs),rhsMax =  -7.52936407820746E-03  2.24311044597717E-01
 cg2d: Sum(rhs),rhsMax =  -7.53013331793233E-03  2.24316777960391E-01
 cg2d: Sum(rhs),rhsMax =  -7.53090270730544E-03  2.24322510012272E-01
 cg2d: Sum(rhs),rhsMax =  -7.53167224607338E-03  2.24328240749210E-01
 cg2d: Sum(rhs),rhsMax =  -7.53244193369635E-03  2.24333970167065E-01
 cg2d: Sum(rhs),rhsMax =  -7.53321176999654E-03  2.24339698261692E-01
 cg2d: Sum(rhs),rhsMax =  -7.53398175392975E-03  2.24345425028963E-01
 cg2d: Sum(rhs),rhsMax =  -7.53475188593232E-03  2.24351150464737E-01
 cg2d: Sum(rhs),rhsMax =  -7.53552216505242E-03  2.24356874564890E-01
 cg2d: Sum(rhs),rhsMax =  -7.53629259056779E-03  2.24362597325291E-01
 cg2d: Sum(rhs),rhsMax =  -7.53706316236892E-03  2.24368318741811E-01
 cg2d: Sum(rhs),rhsMax =  -7.53783388016283E-03  2.24374038810342E-01
 cg2d: Sum(rhs),rhsMax =  -7.53860474352585E-03  2.24379757526761E-01
 cg2d: Sum(rhs),rhsMax =  -7.53937575149859E-03  2.24385474886947E-01
 cg2d: Sum(rhs),rhsMax =  -7.54014690354872E-03  2.24391190886802E-01
 cg2d: Sum(rhs),rhsMax =  -7.54091819973957E-03  2.24396905522214E-01
 cg2d: Sum(rhs),rhsMax =  -7.54168963911431E-03  2.24402618789080E-01
 cg2d: Sum(rhs),rhsMax =  -7.54246122137358E-03  2.24408330683297E-01
 cg2d: Sum(rhs),rhsMax =  -7.54323294599466E-03  2.24414041200776E-01
 cg2d: Sum(rhs),rhsMax =  -7.54400481283631E-03  2.24419750337425E-01
 cg2d: Sum(rhs),rhsMax =  -7.54477682081800E-03  2.24425458089148E-01
 cg2d: Sum(rhs),rhsMax =  -7.54554896974722E-03  2.24431164451858E-01
 cg2d: Sum(rhs),rhsMax =  -7.54632125872468E-03  2.24436869421474E-01
 cg2d: Sum(rhs),rhsMax =  -7.54709368748317E-03  2.24442572993933E-01
 cg2d: Sum(rhs),rhsMax =  -7.54786625577166E-03  2.24448275165135E-01
 cg2d: Sum(rhs),rhsMax =  -7.54863896241395E-03  2.24453975931024E-01
 cg2d: Sum(rhs),rhsMax =  -7.54941180735608E-03  2.24459675287528E-01
 cg2d: Sum(rhs),rhsMax =  -7.55018479015641E-03  2.24465373230581E-01
 cg2d: Sum(rhs),rhsMax =  -7.55095790960041E-03  2.24471069756134E-01
 cg2d: Sum(rhs),rhsMax =  -7.55173116607529E-03  2.24476764860108E-01
 cg2d: Sum(rhs),rhsMax =  -7.55250455816276E-03  2.24482458538469E-01
 cg2d: Sum(rhs),rhsMax =  -7.55327808567499E-03  2.24488150787156E-01
 cg2d: Sum(rhs),rhsMax =  -7.55405174840755E-03  2.24493841602130E-01
 cg2d: Sum(rhs),rhsMax =  -7.55482554487853E-03  2.24499530979348E-01
 cg2d: Sum(rhs),rhsMax =  -7.55559947527638E-03  2.24505218914764E-01
 cg2d: Sum(rhs),rhsMax =  -7.55637353835958E-03  2.24510905404353E-01
 cg2d: Sum(rhs),rhsMax =  -7.55714773468808E-03  2.24516590444075E-01
 cg2d: Sum(rhs),rhsMax =  -7.55792206288793E-03  2.24522274029911E-01
 cg2d: Sum(rhs),rhsMax =  -7.55869652189672E-03  2.24527956157832E-01
 cg2d: Sum(rhs),rhsMax =  -7.55947111175729E-03  2.24533636823815E-01
 cg2d: Sum(rhs),rhsMax =  -7.56024583139603E-03  2.24539316023857E-01
 cg2d: Sum(rhs),rhsMax =  -7.56102068099746E-03  2.24544993753935E-01
 cg2d: Sum(rhs),rhsMax =  -7.56179565921845E-03  2.24550670010040E-01
 cg2d: Sum(rhs),rhsMax =  -7.56257076582723E-03  2.24556344788170E-01
 cg2d: Sum(rhs),rhsMax =  -7.56334599985579E-03  2.24562018084326E-01
 cg2d: Sum(rhs),rhsMax =  -7.56412136090096E-03  2.24567689894513E-01
 cg2d: Sum(rhs),rhsMax =  -7.56489684817916E-03  2.24573360214734E-01
 cg2d: Sum(rhs),rhsMax =  -7.56567246119638E-03  2.24579029041004E-01
 cg2d: Sum(rhs),rhsMax =  -7.56644819934492E-03  2.24584696369334E-01
 cg2d: Sum(rhs),rhsMax =  -7.56722406151493E-03  2.24590362195744E-01
 cg2d: Sum(rhs),rhsMax =  -7.56800004737452E-03  2.24596026516257E-01
 cg2d: Sum(rhs),rhsMax =  -7.56877615633208E-03  2.24601689326904E-01
 cg2d: Sum(rhs),rhsMax =  -7.56955238783368E-03  2.24607350623712E-01
 cg2d: Sum(rhs),rhsMax =  -7.57032874046254E-03  2.24613010402711E-01
 cg2d: Sum(rhs),rhsMax =  -7.57110521411270E-03  2.24618668659948E-01
 cg2d: Sum(rhs),rhsMax =  -7.57188180788557E-03  2.24624325391464E-01
 cg2d: Sum(rhs),rhsMax =  -7.57265852109855E-03  2.24629980593311E-01
 cg2d: Sum(rhs),rhsMax =  -7.57343535354311E-03  2.24635634261532E-01
 cg2d: Sum(rhs),rhsMax =  -7.57421230390546E-03  2.24641286392178E-01
 cg2d: Sum(rhs),rhsMax =  -7.57498937139868E-03  2.24646936981321E-01
 cg2d: Sum(rhs),rhsMax =  -7.57576655510614E-03  2.24652586025013E-01
 cg2d: Sum(rhs),rhsMax =  -7.57654385533626E-03  2.24658233519332E-01
 cg2d: Sum(rhs),rhsMax =  -7.57732127014842E-03  2.24663879460344E-01
 cg2d: Sum(rhs),rhsMax =  -7.57809879968134E-03  2.24669523844121E-01
 cg2d: Sum(rhs),rhsMax =  -7.57887644240235E-03  2.24675166666748E-01
(PID.TID 0000.0001)      cg2d_init_res =   3.45056653082315E-04
(PID.TID 0000.0001)      cg2d_iters(min,last) =      -1      68
(PID.TID 0000.0001)      cg2d_last_res =   8.65648454631178E-08
(PID.TID 0000.0001) // =======================================================
(PID.TID 0000.0001) // Begin MONITOR dynamic field statistics
(PID.TID 0000.0001) // =======================================================
(PID.TID 0000.0001) %MON time_tsnumber                =                 17640
(PID.TID 0000.0001) %MON time_secondsf                =   2.1168000000000E+07
(PID.TID 0000.0001) %MON dynstat_eta_max              =   3.6375272094244E-01
(PID.TID 0000.0001) %MON dynstat_eta_min              =  -1.1481349277618E-01
(PID.TID 0000.0001) %MON dynstat_eta_mean             =   8.5106510319748E-06
(PID.TID 0000.0001) %MON dynstat_eta_sd               =   1.3973282561546E-01
(PID.TID 0000.0001) %MON dynstat_eta_del2             =   3.5725738691245E-05
(PID.TID 0000.0001) %MON dynstat_uvel_max             =   1.7179052045957E-01
(PID.TID 0000.0001) %MON dynstat_uvel_min             =  -1.3648866534703E-01
(PID.TID 0000.0001) %MON dynstat_uvel_mean            =   1.0355027983604E-08
(PID.TID 0000.0001) %MON dynstat_uvel_sd              =   5.6993657673136E-02
(PID.TID 0000.0001) %MON dynstat_uvel_del2            =   7.5871123499869E-05
(PID.TID 0000.0001) %MON dynstat_vvel_max             =   1.1918660845061E-01
(PID.TID 0000.0001) %MON dynstat_vvel_min             =  -1.4644433681084E-01
(PID.TID 0000.0001) %MON dynstat_vvel_mean            =   1.1818329015591E-07
(PID.TID 0000.0001) %MON dynstat_vvel_sd              =   5.2285687676787E-02
(PID.TID 0000.0001) %MON dynstat_vvel_del2            =   3.7208263053761E-05
(PID.TID 0000.0001) %MON dynstat_wvel_max             =   1.3010905533447E-08
(PID.TID 0000.0001) %MON dynstat_wvel_min             =  -5.5880449229153E-09
(PID.TID 0000.0001) %MON dynstat_wvel_mean            =  -2.3497962805171E-21
(PID.TID 0000.0001) %MON dynstat_wvel_sd              =   4.3509246835063E-09
(PID.TID 0000.0001) %MON dynstat_wvel_del2            =   1.2658650267278E-12
(PID.TID 0000.0001) %MON dynstat_theta_max            =   2.0000000000000E+01
(PID.TID 0000.0001) %MON dynstat_theta_min            =   2.0000000000000E+01
(PID.TID 0000.0001) %MON dynstat_theta_mean           =   2.0000000000000E+01
(PID.TID 0000.0001) %MON dynstat_theta_sd             =   3.8014036363165E-13
(PID.TID 0000.0001) %MON dynstat_theta_del2           =   0.0000000000000E+00
(PID.TID 0000.0001) %MON dynstat_salt_max             =   3.0000000000000E+01
(PID.TID 0000.0001) %MON dynstat_salt_min             =   3.0000000000000E+01
(PID.TID 0000.0001) %MON dynstat_salt_mean            =   2.9999999999999E+01
(PID.TID 0000.0001) %MON dynstat_salt_sd              =   5.5777604757167E-13
(PID.TID 0000.0001) %MON dynstat_salt_del2            =   0.0000000000000E+00
(PID.TID 0000.0001) %MON trAdv_CFL_u_max              =   1.0306323846889E-02
(PID.TID 0000.0001) %MON trAdv_CFL_v_max              =   8.7749310852040E-03
(PID.TID 0000.0001) %MON trAdv_CFL_w_max              =   3.4119902062326E-09
(PID.TID 0000.0001) %MON advcfl_uvel_max              =   1.0307431227574E-02
(PID.TID 0000.0001) %MON advcfl_vvel_max              =   8.7866602086503E-03
(PID.TID 0000.0001) %MON advcfl_wvel_max              =   6.2452346560545E-09
(PID.TID 0000.0001) %MON advcfl_W_hf_max              =   0.0000000000000E+00
(PID.TID 0000.0001) %MON pe_b_mean                    =   2.0017976616720E-05
(PID.TID 0000.0001) %MON ke_max                       =   1.4783771794628E-02
(PID.TID 0000.0001) %MON ke_mean                      =   2.9360340798029E-03
(PID.TID 0000.0001) %MON ke_vol                       =   6.8893493896486E+15
(PID.TID 0000.0001) %MON vort_r_min                   =  -1.0765812723659E-06
(PID.TID 0000.0001) %MON vort_r_max                   =   3.6830765142340E-06
(PID.TID 0000.0001) %MON vort_a_mean                  =   1.0600000000000E-04
(PID.TID 0000.0001) %MON vort_a_sd                    =   3.5771883954015E-06
(PID.TID 0000.0001) %MON vort_p_mean                  =   1.1652272308690E-04
(PID.TID 0000.0001) %MON vort_p_sd                    =   4.1792656838662E-05
(PID.TID 0000.0001) %MON surfExpan_theta_mean         =  -4.6957719194533E-20
(PID.TID 0000.0001) %MON surfExpan_salt_mean          =  -7.0434051184047E-20
(PID.TID 0000.0001) // =======================================================
(PID.TID 0000.0001) // End MONITOR dynamic field statistics
(PID.TID 0000.0001) // =======================================================
 cg2d: Sum(rhs),rhsMax =  -7.57965419819794E-03  2.24680807924314E-01
 cg2d: Sum(rhs),rhsMax =  -7.58043206629418E-03  2.24686447612896E-01
 cg2d: Sum(rhs),rhsMax =  -7.58121004519737E-03  2.24692085728591E-01
 cg2d: Sum(rhs),rhsMax =  -7.58198813438897E-03  2.24697722267505E-01
 cg2d: Sum(rhs),rhsMax =  -7.58276633402736E-03  2.24703357225719E-01
 cg2d: Sum(rhs),rhsMax =  -7.58354464185625E-03  2.24708990599359E-01
 cg2d: Sum(rhs),rhsMax =  -7.58432305814801E-03  2.24714622384525E-01
 cg2d: Sum(rhs),rhsMax =  -7.58510158131557E-03  2.24720252577330E-01
 cg2d: Sum(rhs),rhsMax =  -7.58588021103823E-03  2.24725881173894E-01
 cg2d: Sum(rhs),rhsMax =  -7.58665894650836E-03  2.24731508170340E-01
 cg2d: Sum(rhs),rhsMax =  -7.58743778654801E-03  2.24737133562792E-01
 cg2d: Sum(rhs),rhsMax =  -7.58821673076801E-03  2.24742757347381E-01
 cg2d: Sum(rhs),rhsMax =  -7.58899577822137E-03  2.24748379520250E-01
 cg2d: Sum(rhs),rhsMax =  -7.58977492747604E-03  2.24754000077531E-01
 cg2d: Sum(rhs),rhsMax =  -7.59055417823371E-03  2.24759619015369E-01
 cg2d: Sum(rhs),rhsMax =  -7.59133352928387E-03  2.24765236329917E-01
 cg2d: Sum(rhs),rhsMax =  -7.59211298002695E-03  2.24770852017322E-01
 cg2d: Sum(rhs),rhsMax =  -7.59289252950077E-03  2.24776466073746E-01
 cg2d: Sum(rhs),rhsMax =  -7.59367217633506E-03  2.24782078495351E-01
 cg2d: Sum(rhs),rhsMax =  -7.59445192065899E-03  2.24787689278300E-01
 cg2d: Sum(rhs),rhsMax =  -7.59523176067285E-03  2.24793298418762E-01
 cg2d: Sum(rhs),rhsMax =  -7.59601169549468E-03  2.24798905912921E-01
 cg2d: Sum(rhs),rhsMax =  -7.59679172507639E-03  2.24804511756949E-01
 cg2d: Sum(rhs),rhsMax =  -7.59757184763543E-03  2.24810115947038E-01
 cg2d: Sum(rhs),rhsMax =  -7.59835206246113E-03  2.24815718479366E-01
 cg2d: Sum(rhs),rhsMax =  -7.59913236839056E-03  2.24821319350133E-01
 cg2d: Sum(rhs),rhsMax =  -7.59991276483264E-03  2.24826918555539E-01
 cg2d: Sum(rhs),rhsMax =  -7.60069325055502E-03  2.24832516091783E-01
 cg2d: Sum(rhs),rhsMax =  -7.60147382467011E-03  2.24838111955076E-01
 cg2d: Sum(rhs),rhsMax =  -7.60225448621900E-03  2.24843706141626E-01
 cg2d: Sum(rhs),rhsMax =  -7.60303523413175E-03  2.24849298647644E-01
 cg2d: Sum(rhs),rhsMax =  -7.60381606727444E-03  2.24854889469359E-01
 cg2d: Sum(rhs),rhsMax =  -7.60459698485986E-03  2.24860478602995E-01
 cg2d: Sum(rhs),rhsMax =  -7.60537798568859E-03  2.24866066044786E-01
 cg2d: Sum(rhs),rhsMax =  -7.60615906906401E-03  2.24871651790956E-01
 cg2d: Sum(rhs),rhsMax =  -7.60694023389200E-03  2.24877235837757E-01
 cg2d: Sum(rhs),rhsMax =  -7.60772147884049E-03  2.24882818181426E-01
 cg2d: Sum(rhs),rhsMax =  -7.60850280327888E-03  2.24888398818214E-01
 cg2d: Sum(rhs),rhsMax =  -7.60928420558948E-03  2.24893977744375E-01
 cg2d: Sum(rhs),rhsMax =  -7.61006568524849E-03  2.24899554956162E-01
 cg2d: Sum(rhs),rhsMax =  -7.61084724078546E-03  2.24905130449851E-01
 cg2d: Sum(rhs),rhsMax =  -7.61162887143620E-03  2.24910704221698E-01
 cg2d: Sum(rhs),rhsMax =  -7.61241057593721E-03  2.24916276267976E-01
 cg2d: Sum(rhs),rhsMax =  -7.61319235310354E-03  2.24921846584969E-01
 cg2d: Sum(rhs),rhsMax =  -7.61397420180818E-03  2.24927415168958E-01
 cg2d: Sum(rhs),rhsMax =  -7.61475612087491E-03  2.24932982016225E-01
 cg2d: Sum(rhs),rhsMax =  -7.61553810991726E-03  2.24938547123072E-01
 cg2d: Sum(rhs),rhsMax =  -7.61632016648084E-03  2.24944110485786E-01
 cg2d: Sum(rhs),rhsMax =  -7.61710229076552E-03  2.24949672100671E-01
 cg2d: Sum(rhs),rhsMax =  -7.61788448041807E-03  2.24955231964039E-01
 cg2d: Sum(rhs),rhsMax =  -7.61866673513135E-03  2.24960790072196E-01
 cg2d: Sum(rhs),rhsMax =  -7.61944905343984E-03  2.24966346421456E-01
 cg2d: Sum(rhs),rhsMax =  -7.62023143430643E-03  2.24971901008150E-01
 cg2d: Sum(rhs),rhsMax =  -7.62101387593371E-03  2.24977453828594E-01
 cg2d: Sum(rhs),rhsMax =  -7.62179637773581E-03  2.24983004879124E-01
 cg2d: Sum(rhs),rhsMax =  -7.62257893784117E-03  2.24988554156079E-01
 cg2d: Sum(rhs),rhsMax =  -7.62336155599240E-03  2.24994101655795E-01
 cg2d: Sum(rhs),rhsMax =  -7.62414423039076E-03  2.24999647374621E-01
 cg2d: Sum(rhs),rhsMax =  -7.62492696026457E-03  2.25005191308906E-01
 cg2d: Sum(rhs),rhsMax =  -7.62570974353378E-03  2.25010733455005E-01
 cg2d: Sum(rhs),rhsMax =  -7.62649257969022E-03  2.25016273809281E-01
 cg2d: Sum(rhs),rhsMax =  -7.62727546682723E-03  2.25021812368102E-01
 cg2d: Sum(rhs),rhsMax =  -7.62805840412620E-03  2.25027349127838E-01
 cg2d: Sum(rhs),rhsMax =  -7.62884139015253E-03  2.25032884084862E-01
 cg2d: Sum(rhs),rhsMax =  -7.62962442367385E-03  2.25038417235563E-01
 cg2d: Sum(rhs),rhsMax =  -7.63040750315241E-03  2.25043948576317E-01
 cg2d: Sum(rhs),rhsMax =  -7.63119062759212E-03  2.25049478103524E-01
 cg2d: Sum(rhs),rhsMax =  -7.63197379536033E-03  2.25055005813579E-01
 cg2d: Sum(rhs),rhsMax =  -7.63275700538546E-03  2.25060531702881E-01
 cg2d: Sum(rhs),rhsMax =  -7.63354025585408E-03  2.25066055767835E-01
 cg2d: Sum(rhs),rhsMax =  -7.63432354605793E-03  2.25071578004862E-01
 cg2d: Sum(rhs),rhsMax =  -7.63510687419175E-03  2.25077098410369E-01
(PID.TID 0000.0001)      cg2d_init_res =   3.42081678916354E-04
(PID.TID 0000.0001)      cg2d_iters(min,last) =      -1      68
(PID.TID 0000.0001)      cg2d_last_res =   8.66538889795818E-08
(PID.TID 0000.0001) // =======================================================
(PID.TID 0000.0001) // Begin MONITOR dynamic field statistics
(PID.TID 0000.0001) // =======================================================
(PID.TID 0000.0001) %MON time_tsnumber                =                 17712
(PID.TID 0000.0001) %MON time_secondsf                =   2.1254400000000E+07
(PID.TID 0000.0001) %MON dynstat_eta_max              =   3.6483009194371E-01
(PID.TID 0000.0001) %MON dynstat_eta_min              =  -1.1502810893150E-01
(PID.TID 0000.0001) %MON dynstat_eta_mean             =   8.5891274444771E-06
(PID.TID 0000.0001) %MON dynstat_eta_sd               =   1.4009219168498E-01
(PID.TID 0000.0001) %MON dynstat_eta_del2             =   3.5805793466733E-05
(PID.TID 0000.0001) %MON dynstat_uvel_max             =   1.7214202066486E-01
(PID.TID 0000.0001) %MON dynstat_uvel_min             =  -1.3689713695432E-01
(PID.TID 0000.0001) %MON dynstat_uvel_mean            =   1.4908140311813E-08
(PID.TID 0000.0001) %MON dynstat_uvel_sd              =   5.7138972815550E-02
(PID.TID 0000.0001) %MON dynstat_uvel_del2            =   7.5942219103241E-05
(PID.TID 0000.0001) %MON dynstat_vvel_max             =   1.1950974617521E-01
(PID.TID 0000.0001) %MON dynstat_vvel_min             =  -1.4679123849814E-01
(PID.TID 0000.0001) %MON dynstat_vvel_mean            =   1.1352641565827E-07
(PID.TID 0000.0001) %MON dynstat_vvel_sd              =   5.2420596058618E-02
(PID.TID 0000.0001) %MON dynstat_vvel_del2            =   3.7222179492252E-05
(PID.TID 0000.0001) %MON dynstat_wvel_max             =   1.2950027777406E-08
(PID.TID 0000.0001) %MON dynstat_wvel_min             =  -5.5141587115941E-09
(PID.TID 0000.0001) %MON dynstat_wvel_mean            =   7.3424482454559E-21
(PID.TID 0000.0001) %MON dynstat_wvel_sd              =   4.3317230662676E-09
(PID.TID 0000.0001) %MON dynstat_wvel_del2            =   1.2635307213601E-12
(PID.TID 0000.0001) %MON dynstat_theta_max            =   2.0000000000000E+01
(PID.TID 0000.0001) %MON dynstat_theta_min            =   2.0000000000000E+01
(PID.TID 0000.0001) %MON dynstat_theta_mean           =   2.0000000000000E+01
(PID.TID 0000.0001) %MON dynstat_theta_sd             =   3.8014036363165E-13
(PID.TID 0000.0001) %MON dynstat_theta_del2           =   0.0000000000000E+00
(PID.TID 0000.0001) %MON dynstat_salt_max             =   3.0000000000000E+01
(PID.TID 0000.0001) %MON dynstat_salt_min             =   3.0000000000000E+01
(PID.TID 0000.0001) %MON dynstat_salt_mean            =   2.9999999999999E+01
(PID.TID 0000.0001) %MON dynstat_salt_sd              =   5.5777604757167E-13
(PID.TID 0000.0001) %MON dynstat_salt_del2            =   0.0000000000000E+00
(PID.TID 0000.0001) %MON trAdv_CFL_u_max              =   1.0327412260774E-02
(PID.TID 0000.0001) %MON trAdv_CFL_v_max              =   8.7957155853613E-03
(PID.TID 0000.0001) %MON trAdv_CFL_w_max              =   3.3960575393932E-09
(PID.TID 0000.0001) %MON advcfl_uvel_max              =   1.0328521239891E-02
(PID.TID 0000.0001) %MON advcfl_vvel_max              =   8.8074743098883E-03
(PID.TID 0000.0001) %MON advcfl_wvel_max              =   6.2160133331548E-09
(PID.TID 0000.0001) %MON advcfl_W_hf_max              =   0.0000000000000E+00
(PID.TID 0000.0001) %MON pe_b_mean                    =   2.0121073825677E-05
(PID.TID 0000.0001) %MON ke_max                       =   1.4844539982609E-02
(PID.TID 0000.0001) %MON ke_mean                      =   2.9511071912045E-03
(PID.TID 0000.0001) %MON ke_vol                       =   6.8893493896486E+15
(PID.TID 0000.0001) %MON vort_r_min                   =  -1.0795037296855E-06
(PID.TID 0000.0001) %MON vort_r_max                   =   3.6900089061729E-06
(PID.TID 0000.0001) %MON vort_a_mean                  =   1.0600000000000E-04
(PID.TID 0000.0001) %MON vort_a_sd                    =   3.5774201942908E-06
(PID.TID 0000.0001) %MON vort_p_mean                  =   1.1652272308690E-04
(PID.TID 0000.0001) %MON vort_p_sd                    =   4.1792693341195E-05
(PID.TID 0000.0001) %MON surfExpan_theta_mean         =   1.4684581452053E-19
(PID.TID 0000.0001) %MON surfExpan_salt_mean          =   2.2026130055666E-19
(PID.TID 0000.0001) // =======================================================
(PID.TID 0000.0001) // End MONITOR dynamic field statistics
(PID.TID 0000.0001) // =======================================================
 cg2d: Sum(rhs),rhsMax =  -7.63589023890878E-03  2.25082616980785E-01
 cg2d: Sum(rhs),rhsMax =  -7.63667363873826E-03  2.25088133712535E-01
 cg2d: Sum(rhs),rhsMax =  -7.63745707254461E-03  2.25093648602056E-01
 cg2d: Sum(rhs),rhsMax =  -7.63824053883135E-03  2.25099161645778E-01
 cg2d: Sum(rhs),rhsMax =  -7.63902403620679E-03  2.25104672840151E-01
 cg2d: Sum(rhs),rhsMax =  -7.63980756309543E-03  2.25110182181617E-01
 cg2d: Sum(rhs),rhsMax =  -7.64059111795646E-03  2.25115689666639E-01
 cg2d: Sum(rhs),rhsMax =  -7.64137469958336E-03  2.25121195291666E-01
 cg2d: Sum(rhs),rhsMax =  -7.64215830648323E-03  2.25126699053172E-01
 cg2d: Sum(rhs),rhsMax =  -7.64294193658024E-03  2.25132200947621E-01
 cg2d: Sum(rhs),rhsMax =  -7.64372558941710E-03  2.25137700971491E-01
 cg2d: Sum(rhs),rhsMax =  -7.64450926266540E-03  2.25143199121254E-01
 cg2d: Sum(rhs),rhsMax =  -7.64529295533281E-03  2.25148695393406E-01
 cg2d: Sum(rhs),rhsMax =  -7.64607666566625E-03  2.25154189784435E-01
 cg2d: Sum(rhs),rhsMax =  -7.64686039164568E-03  2.25159682290828E-01
 cg2d: Sum(rhs),rhsMax =  -7.64764413265766E-03  2.25165172909103E-01
 cg2d: Sum(rhs),rhsMax =  -7.64842788646310E-03  2.25170661635757E-01
 cg2d: Sum(rhs),rhsMax =  -7.64921165201867E-03  2.25176148467304E-01
 cg2d: Sum(rhs),rhsMax =  -7.64999542729067E-03  2.25181633400260E-01
 cg2d: Sum(rhs),rhsMax =  -7.65077921084608E-03  2.25187116431154E-01
 cg2d: Sum(rhs),rhsMax =  -7.65156300115608E-03  2.25192597556506E-01
 cg2d: Sum(rhs),rhsMax =  -7.65234679642203E-03  2.25198076772858E-01
 cg2d: Sum(rhs),rhsMax =  -7.65313059515355E-03  2.25203554076746E-01
 cg2d: Sum(rhs),rhsMax =  -7.65391439568291E-03  2.25209029464712E-01
 cg2d: Sum(rhs),rhsMax =  -7.65469819663845E-03  2.25214502933316E-01
 cg2d: Sum(rhs),rhsMax =  -7.65548199602541E-03  2.25219974479108E-01
 cg2d: Sum(rhs),rhsMax =  -7.65626579199396E-03  2.25225444098648E-01
 cg2d: Sum(rhs),rhsMax =  -7.65704958342869E-03  2.25230911788509E-01
 cg2d: Sum(rhs),rhsMax =  -7.65783336832802E-03  2.25236377545257E-01
 cg2d: Sum(rhs),rhsMax =  -7.65861714443799E-03  2.25241841365476E-01
 cg2d: Sum(rhs),rhsMax =  -7.65940091072916E-03  2.25247303245743E-01
 cg2d: Sum(rhs),rhsMax =  -7.66018466537360E-03  2.25252763182651E-01
 cg2d: Sum(rhs),rhsMax =  -7.66096840660039E-03  2.25258221172799E-01
 cg2d: Sum(rhs),rhsMax =  -7.66175213236286E-03  2.25263677212784E-01
 cg2d: Sum(rhs),rhsMax =  -7.66253584115745E-03  2.25269131299209E-01
 cg2d: Sum(rhs),rhsMax =  -7.66331953087705E-03  2.25274583428691E-01
 cg2d: Sum(rhs),rhsMax =  -7.66410320045320E-03  2.25280033597838E-01
 cg2d: Sum(rhs),rhsMax =  -7.66488684740083E-03  2.25285481803291E-01
 cg2d: Sum(rhs),rhsMax =  -7.66567046991873E-03  2.25290928041662E-01
 cg2d: Sum(rhs),rhsMax =  -7.66645406630849E-03  2.25296372309592E-01
 cg2d: Sum(rhs),rhsMax =  -7.66723763539123E-03  2.25301814603722E-01
 cg2d: Sum(rhs),rhsMax =  -7.66802117433422E-03  2.25307254920695E-01
 cg2d: Sum(rhs),rhsMax =  -7.66880468169412E-03  2.25312693257160E-01
 cg2d: Sum(rhs),rhsMax =  -7.66958815531175E-03  2.25318129609781E-01
 cg2d: Sum(rhs),rhsMax =  -7.67037159365229E-03  2.25323563975217E-01
 cg2d: Sum(rhs),rhsMax =  -7.67115499455214E-03  2.25328996350138E-01
 cg2d: Sum(rhs),rhsMax =  -7.67193835660094E-03  2.25334426731216E-01
 cg2d: Sum(rhs),rhsMax =  -7.67272167699776E-03  2.25339855115132E-01
 cg2d: Sum(rhs),rhsMax =  -7.67350495445103E-03  2.25345281498575E-01
 cg2d: Sum(rhs),rhsMax =  -7.67428818666783E-03  2.25350705878233E-01
 cg2d: Sum(rhs),rhsMax =  -7.67507137163894E-03  2.25356128250807E-01
 cg2d: Sum(rhs),rhsMax =  -7.67585450774805E-03  2.25361548612998E-01
 cg2d: Sum(rhs),rhsMax =  -7.67663759288966E-03  2.25366966961517E-01
 cg2d: Sum(rhs),rhsMax =  -7.67742062460916E-03  2.25372383293071E-01
 cg2d: Sum(rhs),rhsMax =  -7.67820360160990E-03  2.25377797604392E-01
 cg2d: Sum(rhs),rhsMax =  -7.67898652114181E-03  2.25383209892203E-01
 cg2d: Sum(rhs),rhsMax =  -7.67976938118380E-03  2.25388620153235E-01
 cg2d: Sum(rhs),rhsMax =  -7.68055217973627E-03  2.25394028384223E-01
 cg2d: Sum(rhs),rhsMax =  -7.68133491526582E-03  2.25399434581919E-01
 cg2d: Sum(rhs),rhsMax =  -7.68211758498996E-03  2.25404838743073E-01
 cg2d: Sum(rhs),rhsMax =  -7.68290018735506E-03  2.25410240864434E-01
 cg2d: Sum(rhs),rhsMax =  -7.68368272000277E-03  2.25415640942770E-01
 cg2d: Sum(rhs),rhsMax =  -7.68446518060046E-03  2.25421038974845E-01
 cg2d: Sum(rhs),rhsMax =  -7.68524756726083E-03  2.25426434957437E-01
 cg2d: Sum(rhs),rhsMax =  -7.68602987764644E-03  2.25431828887320E-01
 cg2d: Sum(rhs),rhsMax =  -7.68681210922852E-03  2.25437220761287E-01
 cg2d: Sum(rhs),rhsMax =  -7.68759426067093E-03  2.25442610576132E-01
 cg2d: Sum(rhs),rhsMax =  -7.68837632904732E-03  2.25447998328643E-01
 cg2d: Sum(rhs),rhsMax =  -7.68915831245988E-03  2.25453384015630E-01
 cg2d: Sum(rhs),rhsMax =  -7.68994020885341E-03  2.25458767633901E-01
 cg2d: Sum(rhs),rhsMax =  -7.69072201531535E-03  2.25464149180275E-01
 cg2d: Sum(rhs),rhsMax =  -7.69150372995481E-03  2.25469528651569E-01
(PID.TID 0000.0001)      cg2d_init_res =   3.39312574431917E-04
(PID.TID 0000.0001)      cg2d_iters(min,last) =      -1      68
(PID.TID 0000.0001)      cg2d_last_res =   8.71667000266705E-08
(PID.TID 0000.0001) // =======================================================
(PID.TID 0000.0001) // Begin MONITOR dynamic field statistics
(PID.TID 0000.0001) // =======================================================
(PID.TID 0000.0001) %MON time_tsnumber                =                 17784
(PID.TID 0000.0001) %MON time_secondsf                =   2.1340800000000E+07
(PID.TID 0000.0001) %MON dynstat_eta_max              =   3.6590595700847E-01
(PID.TID 0000.0001) %MON dynstat_eta_min              =  -1.1524404687973E-01
(PID.TID 0000.0001) %MON dynstat_eta_mean             =   8.6676429859894E-06
(PID.TID 0000.0001) %MON dynstat_eta_sd               =   1.4044982026201E-01
(PID.TID 0000.0001) %MON dynstat_eta_del2             =   3.5886121777433E-05
(PID.TID 0000.0001) %MON dynstat_uvel_max             =   1.7249283850864E-01
(PID.TID 0000.0001) %MON dynstat_uvel_min             =  -1.3729600950919E-01
(PID.TID 0000.0001) %MON dynstat_uvel_mean            =   1.8158129348054E-08
(PID.TID 0000.0001) %MON dynstat_uvel_sd              =   5.7281898488794E-02
(PID.TID 0000.0001) %MON dynstat_uvel_del2            =   7.6013125318257E-05
(PID.TID 0000.0001) %MON dynstat_vvel_max             =   1.1983494666381E-01
(PID.TID 0000.0001) %MON dynstat_vvel_min             =  -1.4714117305616E-01
(PID.TID 0000.0001) %MON dynstat_vvel_mean            =   1.0851666444679E-07
(PID.TID 0000.0001) %MON dynstat_vvel_sd              =   5.2557010882050E-02
(PID.TID 0000.0001) %MON dynstat_vvel_del2            =   3.7232795586420E-05
(PID.TID 0000.0001) %MON dynstat_wvel_max             =   1.2881554799387E-08
(PID.TID 0000.0001) %MON dynstat_wvel_min             =  -5.4134102689568E-09
(PID.TID 0000.0001) %MON dynstat_wvel_mean            =   8.0022376399332E-21
(PID.TID 0000.0001) %MON dynstat_wvel_sd              =   4.3129920786079E-09
(PID.TID 0000.0001) %MON dynstat_wvel_del2            =   1.2612429801832E-12
(PID.TID 0000.0001) %MON dynstat_theta_max            =   2.0000000000000E+01
(PID.TID 0000.0001) %MON dynstat_theta_min            =   2.0000000000000E+01
(PID.TID 0000.0001) %MON dynstat_theta_mean           =   2.0000000000000E+01
(PID.TID 0000.0001) %MON dynstat_theta_sd             =   3.8014036363165E-13
(PID.TID 0000.0001) %MON dynstat_theta_del2           =   0.0000000000000E+00
(PID.TID 0000.0001) %MON dynstat_salt_max             =   3.0000000000000E+01
(PID.TID 0000.0001) %MON dynstat_salt_min             =   3.0000000000000E+01
(PID.TID 0000.0001) %MON dynstat_salt_mean            =   2.9999999999999E+01
(PID.TID 0000.0001) %MON dynstat_salt_sd              =   5.5777604757167E-13
(PID.TID 0000.0001) %MON dynstat_salt_del2            =   0.0000000000000E+00
(PID.TID 0000.0001) %MON trAdv_CFL_u_max              =   1.0348460724895E-02
(PID.TID 0000.0001) %MON trAdv_CFL_v_max              =   8.8166817829259E-03
(PID.TID 0000.0001) %MON trAdv_CFL_w_max              =   3.3781266619856E-09
(PID.TID 0000.0001) %MON advcfl_uvel_max              =   1.0349570310518E-02
(PID.TID 0000.0001) %MON advcfl_vvel_max              =   8.8284703833695E-03
(PID.TID 0000.0001) %MON advcfl_wvel_max              =   6.1831463037059E-09
(PID.TID 0000.0001) %MON advcfl_W_hf_max              =   0.0000000000000E+00
(PID.TID 0000.0001) %MON pe_b_mean                    =   2.0223935460225E-05
(PID.TID 0000.0001) %MON ke_max                       =   1.4905372679199E-02
(PID.TID 0000.0001) %MON ke_mean                      =   2.9661622542180E-03
(PID.TID 0000.0001) %MON ke_vol                       =   6.8893493896486E+15
(PID.TID 0000.0001) %MON vort_r_min                   =  -1.0824047940456E-06
(PID.TID 0000.0001) %MON vort_r_max                   =   3.6969242956028E-06
(PID.TID 0000.0001) %MON vort_a_mean                  =   1.0600000000000E-04
(PID.TID 0000.0001) %MON vort_a_sd                    =   3.5776507110413E-06
(PID.TID 0000.0001) %MON vort_p_mean                  =   1.1652272308690E-04
(PID.TID 0000.0001) %MON vort_p_sd                    =   4.1792724613105E-05
(PID.TID 0000.0001) %MON surfExpan_theta_mean         =   1.6006128027928E-19
(PID.TID 0000.0001) %MON surfExpan_salt_mean          =   2.4008670853861E-19
(PID.TID 0000.0001) // =======================================================
(PID.TID 0000.0001) // End MONITOR dynamic field statistics
(PID.TID 0000.0001) // =======================================================
 cg2d: Sum(rhs),rhsMax =  -7.69228535070969E-03  2.25474906044618E-01
 cg2d: Sum(rhs),rhsMax =  -7.69306687466226E-03  2.25480281356251E-01
 cg2d: Sum(rhs),rhsMax =  -7.69384829999532E-03  2.25485654583309E-01
 cg2d: Sum(rhs),rhsMax =  -7.69462962446713E-03  2.25491025722640E-01
 cg2d: Sum(rhs),rhsMax =  -7.69541084518544E-03  2.25496394771092E-01
 cg2d: Sum(rhs),rhsMax =  -7.69619196038582E-03  2.25501761725529E-01
 cg2d: Sum(rhs),rhsMax =  -7.69697296715476E-03  2.25507126582815E-01
 cg2d: Sum(rhs),rhsMax =  -7.69775386383723E-03  2.25512489339819E-01
 cg2d: Sum(rhs),rhsMax =  -7.69853464713822E-03  2.25517849993418E-01
 cg2d: Sum(rhs),rhsMax =  -7.69931531533537E-03  2.25523208540492E-01
 cg2d: Sum(rhs),rhsMax =  -7.70009586551306E-03  2.25528564977941E-01
 cg2d: Sum(rhs),rhsMax =  -7.70087629512997E-03  2.25533919302648E-01
 cg2d: Sum(rhs),rhsMax =  -7.70165660209617E-03  2.25539271511516E-01
 cg2d: Sum(rhs),rhsMax =  -7.70243678409557E-03  2.25544621601468E-01
 cg2d: Sum(rhs),rhsMax =  -7.70321683837553E-03  2.25549969569397E-01
 cg2d: Sum(rhs),rhsMax =  -7.70399676251889E-03  2.25555315412237E-01
 cg2d: Sum(rhs),rhsMax =  -7.70477655376469E-03  2.25560659126908E-01
 cg2d: Sum(rhs),rhsMax =  -7.70555620975008E-03  2.25566000710344E-01
 cg2d: Sum(rhs),rhsMax =  -7.70633572812295E-03  2.25571340159488E-01
 cg2d: Sum(rhs),rhsMax =  -7.70711510627543E-03  2.25576677471285E-01
 cg2d: Sum(rhs),rhsMax =  -7.70789434086102E-03  2.25582012642680E-01
 cg2d: Sum(rhs),rhsMax =  -7.70867342999678E-03  2.25587345670635E-01
 cg2d: Sum(rhs),rhsMax =  -7.70945237076638E-03  2.25592676552113E-01
 cg2d: Sum(rhs),rhsMax =  -7.71023116081193E-03  2.25598005284085E-01
 cg2d: Sum(rhs),rhsMax =  -7.71100979700962E-03  2.25603331863530E-01
 cg2d: Sum(rhs),rhsMax =  -7.71178827702770E-03  2.25608656287429E-01
 cg2d: Sum(rhs),rhsMax =  -7.71256659788503E-03  2.25613978552770E-01
 cg2d: Sum(rhs),rhsMax =  -7.71334475732828E-03  2.25619298656550E-01
 cg2d: Sum(rhs),rhsMax =  -7.71412275242921E-03  2.25624616595772E-01
 cg2d: Sum(rhs),rhsMax =  -7.71490058042075E-03  2.25629932367445E-01
 cg2d: Sum(rhs),rhsMax =  -7.71567823858456E-03  2.25635245968581E-01
 cg2d: Sum(rhs),rhsMax =  -7.71645572415006E-03  2.25640557396201E-01
 cg2d: Sum(rhs),rhsMax =  -7.71723303440527E-03  2.25645866647335E-01
 cg2d: Sum(rhs),rhsMax =  -7.71801016620358E-03  2.25651173719018E-01
 cg2d: Sum(rhs),rhsMax =  -7.71878711689540E-03  2.25656478608287E-01
 cg2d: Sum(rhs),rhsMax =  -7.71956388357100E-03  2.25661781312195E-01
 cg2d: Sum(rhs),rhsMax =  -7.72034046394387E-03  2.25667081827789E-01
 cg2d: Sum(rhs),rhsMax =  -7.72111685478617E-03  2.25672380152129E-01
 cg2d: Sum(rhs),rhsMax =  -7.72189305309598E-03  2.25677676282286E-01
 cg2d: Sum(rhs),rhsMax =  -7.72266905550367E-03  2.25682970215325E-01
 cg2d: Sum(rhs),rhsMax =  -7.72344485976709E-03  2.25688261948332E-01
 cg2d: Sum(rhs),rhsMax =  -7.72422046272489E-03  2.25693551478394E-01
 cg2d: Sum(rhs),rhsMax =  -7.72499586123990E-03  2.25698838802595E-01
 cg2d: Sum(rhs),rhsMax =  -7.72577105307404E-03  2.25704123918040E-01
 cg2d: Sum(rhs),rhsMax =  -7.72654603417394E-03  2.25709406821839E-01
 cg2d: Sum(rhs),rhsMax =  -7.72732080236695E-03  2.25714687511091E-01
 cg2d: Sum(rhs),rhsMax =  -7.72809535440792E-03  2.25719965982921E-01
 cg2d: Sum(rhs),rhsMax =  -7.72886968690499E-03  2.25725242234456E-01
 cg2d: Sum(rhs),rhsMax =  -7.72964379696274E-03  2.25730516262828E-01
 cg2d: Sum(rhs),rhsMax =  -7.73041768185669E-03  2.25735788065167E-01
 cg2d: Sum(rhs),rhsMax =  -7.73119133825749E-03  2.25741057638627E-01
 cg2d: Sum(rhs),rhsMax =  -7.73196476297762E-03  2.25746324980354E-01
 cg2d: Sum(rhs),rhsMax =  -7.73273795329353E-03  2.25751590087507E-01
 cg2d: Sum(rhs),rhsMax =  -7.73351090522873E-03  2.25756852957249E-01
 cg2d: Sum(rhs),rhsMax =  -7.73428361636964E-03  2.25762113586753E-01
 cg2d: Sum(rhs),rhsMax =  -7.73505608289486E-03  2.25767371973197E-01
 cg2d: Sum(rhs),rhsMax =  -7.73582830198864E-03  2.25772628113763E-01
 cg2d: Sum(rhs),rhsMax =  -7.73660027045272E-03  2.25777882005641E-01
 cg2d: Sum(rhs),rhsMax =  -7.73737198508647E-03  2.25783133646031E-01
 cg2d: Sum(rhs),rhsMax =  -7.73814344252761E-03  2.25788383032140E-01
 cg2d: Sum(rhs),rhsMax =  -7.73891463935185E-03  2.25793630161174E-01
 cg2d: Sum(rhs),rhsMax =  -7.73968557237039E-03  2.25798875030354E-01
 cg2d: Sum(rhs),rhsMax =  -7.74045623831680E-03  2.25804117636898E-01
 cg2d: Sum(rhs),rhsMax =  -7.74122663386727E-03  2.25809357978048E-01
 cg2d: Sum(rhs),rhsMax =  -7.74199675557681E-03  2.25814596051033E-01
 cg2d: Sum(rhs),rhsMax =  -7.74276660018639E-03  2.25819831853101E-01
 cg2d: Sum(rhs),rhsMax =  -7.74353616445821E-03  2.25825065381501E-01
 cg2d: Sum(rhs),rhsMax =  -7.74430544506705E-03  2.25830296633492E-01
 cg2d: Sum(rhs),rhsMax =  -7.74507443780693E-03  2.25835525606341E-01
 cg2d: Sum(rhs),rhsMax =  -7.74584313967016E-03  2.25840752297318E-01
 cg2d: Sum(rhs),rhsMax =  -7.74661154745001E-03  2.25845976703696E-01
 cg2d: Sum(rhs),rhsMax =  -7.74737965777112E-03  2.25851198822772E-01
(PID.TID 0000.0001)      cg2d_init_res =   3.36722284061521E-04
(PID.TID 0000.0001)      cg2d_iters(min,last) =      -1      68
(PID.TID 0000.0001)      cg2d_last_res =   8.81631804654868E-08
(PID.TID 0000.0001) // =======================================================
(PID.TID 0000.0001) // Begin MONITOR dynamic field statistics
(PID.TID 0000.0001) // =======================================================
(PID.TID 0000.0001) %MON time_tsnumber                =                 17856
(PID.TID 0000.0001) %MON time_secondsf                =   2.1427200000000E+07
(PID.TID 0000.0001) %MON dynstat_eta_max              =   3.6698042399622E-01
(PID.TID 0000.0001) %MON dynstat_eta_min              =  -1.1546182692928E-01
(PID.TID 0000.0001) %MON dynstat_eta_mean             =   8.7453607491404E-06
(PID.TID 0000.0001) %MON dynstat_eta_sd               =   1.4080586516953E-01
(PID.TID 0000.0001) %MON dynstat_eta_del2             =   3.5966643117918E-05
(PID.TID 0000.0001) %MON dynstat_uvel_max             =   1.7284178558778E-01
(PID.TID 0000.0001) %MON dynstat_uvel_min             =  -1.3768537227128E-01
(PID.TID 0000.0001) %MON dynstat_uvel_mean            =   2.0093134278056E-08
(PID.TID 0000.0001) %MON dynstat_uvel_sd              =   5.7422446740998E-02
(PID.TID 0000.0001) %MON dynstat_uvel_del2            =   7.6083492191965E-05
(PID.TID 0000.0001) %MON dynstat_vvel_max             =   1.2016415045720E-01
(PID.TID 0000.0001) %MON dynstat_vvel_min             =  -1.4749413707825E-01
(PID.TID 0000.0001) %MON dynstat_vvel_mean            =   1.0335928973335E-07
(PID.TID 0000.0001) %MON dynstat_vvel_sd              =   5.2694967864260E-02
(PID.TID 0000.0001) %MON dynstat_vvel_del2            =   3.7240103977950E-05
(PID.TID 0000.0001) %MON dynstat_wvel_max             =   1.2819758924015E-08
(PID.TID 0000.0001) %MON dynstat_wvel_min             =  -5.2961992134806E-09
(PID.TID 0000.0001) %MON dynstat_wvel_mean            =  -2.7150710795670E-21
(PID.TID 0000.0001) %MON dynstat_wvel_sd              =   4.2948295426788E-09
(PID.TID 0000.0001) %MON dynstat_wvel_del2            =   1.2588900842360E-12
(PID.TID 0000.0001) %MON dynstat_theta_max            =   2.0000000000000E+01
(PID.TID 0000.0001) %MON dynstat_theta_min            =   2.0000000000000E+01
(PID.TID 0000.0001) %MON dynstat_theta_mean           =   2.0000000000000E+01
(PID.TID 0000.0001) %MON dynstat_theta_sd             =   3.8014036363165E-13
(PID.TID 0000.0001) %MON dynstat_theta_del2           =   0.0000000000000E+00
(PID.TID 0000.0001) %MON dynstat_salt_max             =   3.0000000000000E+01
(PID.TID 0000.0001) %MON dynstat_salt_min             =   3.0000000000000E+01
(PID.TID 0000.0001) %MON dynstat_salt_mean            =   2.9999999999999E+01
(PID.TID 0000.0001) %MON dynstat_salt_sd              =   5.5777604757167E-13
(PID.TID 0000.0001) %MON dynstat_salt_del2            =   0.0000000000000E+00
(PID.TID 0000.0001) %MON trAdv_CFL_u_max              =   1.0369397940583E-02
(PID.TID 0000.0001) %MON trAdv_CFL_v_max              =   8.8378295510681E-03
(PID.TID 0000.0001) %MON trAdv_CFL_w_max              =   3.3622258498813E-09
(PID.TID 0000.0001) %MON advcfl_uvel_max              =   1.0370507135267E-02
(PID.TID 0000.0001) %MON advcfl_vvel_max              =   8.8496482246949E-03
(PID.TID 0000.0001) %MON advcfl_wvel_max              =   6.1534842835274E-09
(PID.TID 0000.0001) %MON advcfl_W_hf_max              =   0.0000000000000E+00
(PID.TID 0000.0001) %MON pe_b_mean                    =   2.0326602109467E-05
(PID.TID 0000.0001) %MON ke_max                       =   1.4966066812115E-02
(PID.TID 0000.0001) %MON ke_mean                      =   2.9812013949168E-03
(PID.TID 0000.0001) %MON ke_vol                       =   6.8893493896486E+15
(PID.TID 0000.0001) %MON vort_r_min                   =  -1.0852902003081E-06
(PID.TID 0000.0001) %MON vort_r_max                   =   3.7037979428629E-06
(PID.TID 0000.0001) %MON vort_a_mean                  =   1.0600000000000E-04
(PID.TID 0000.0001) %MON vort_a_sd                    =   3.5778797392143E-06
(PID.TID 0000.0001) %MON vort_p_mean                  =   1.1652272308690E-04
(PID.TID 0000.0001) %MON vort_p_sd                    =   4.1792750890883E-05
(PID.TID 0000.0001) %MON surfExpan_theta_mean         =  -5.4292412541044E-20
(PID.TID 0000.0001) %MON surfExpan_salt_mean          =  -8.1443671559908E-20
(PID.TID 0000.0001) // =======================================================
(PID.TID 0000.0001) // End MONITOR dynamic field statistics
(PID.TID 0000.0001) // =======================================================
 cg2d: Sum(rhs),rhsMax =  -7.74814746652920E-03  2.25856418651825E-01
 cg2d: Sum(rhs),rhsMax =  -7.74891497027236E-03  2.25861636188159E-01
 cg2d: Sum(rhs),rhsMax =  -7.74968216651218E-03  2.25866851429087E-01
 cg2d: Sum(rhs),rhsMax =  -7.75044905019035E-03  2.25872064371908E-01
 cg2d: Sum(rhs),rhsMax =  -7.75121561870091E-03  2.25877275013949E-01
 cg2d: Sum(rhs),rhsMax =  -7.75198186837083E-03  2.25882483352535E-01
 cg2d: Sum(rhs),rhsMax =  -7.75274779543681E-03  2.25887689384997E-01
 cg2d: Sum(rhs),rhsMax =  -7.75351339592288E-03  2.25892893108674E-01
 cg2d: Sum(rhs),rhsMax =  -7.75427866681014E-03  2.25898094520916E-01
 cg2d: Sum(rhs),rhsMax =  -7.75504360389364E-03  2.25903293619077E-01
 cg2d: Sum(rhs),rhsMax =  -7.75580820404888E-03  2.25908490400509E-01
 cg2d: Sum(rhs),rhsMax =  -7.75657246324207E-03  2.25913684862587E-01
 cg2d: Sum(rhs),rhsMax =  -7.75733637780572E-03  2.25918877002688E-01
 cg2d: Sum(rhs),rhsMax =  -7.75809994342544E-03  2.25924066818181E-01
 cg2d: Sum(rhs),rhsMax =  -7.75886315741608E-03  2.25929254306470E-01
 cg2d: Sum(rhs),rhsMax =  -7.75962601489502E-03  2.25934439464931E-01
 cg2d: Sum(rhs),rhsMax =  -7.76038851293807E-03  2.25939622290980E-01
 cg2d: Sum(rhs),rhsMax =  -7.76115064721963E-03  2.25944802782020E-01
 cg2d: Sum(rhs),rhsMax =  -7.76191241440480E-03  2.25949980935469E-01
 cg2d: Sum(rhs),rhsMax =  -7.76267381019898E-03  2.25955156748749E-01
 cg2d: Sum(rhs),rhsMax =  -7.76343483074050E-03  2.25960330219291E-01
 cg2d: Sum(rhs),rhsMax =  -7.76419547210429E-03  2.25965501344528E-01
 cg2d: Sum(rhs),rhsMax =  -7.76495573078144E-03  2.25970670121905E-01
 cg2d: Sum(rhs),rhsMax =  -7.76571560226418E-03  2.25975836548874E-01
 cg2d: Sum(rhs),rhsMax =  -7.76647508288980E-03  2.25981000622889E-01
 cg2d: Sum(rhs),rhsMax =  -7.76723416880927E-03  2.25986162341422E-01
 cg2d: Sum(rhs),rhsMax =  -7.76799285563585E-03  2.25991321701936E-01
 cg2d: Sum(rhs),rhsMax =  -7.76875113961013E-03  2.25996478701913E-01
 cg2d: Sum(rhs),rhsMax =  -7.76950901676827E-03  2.26001633338843E-01
 cg2d: Sum(rhs),rhsMax =  -7.77026648287175E-03  2.26006785610213E-01
 cg2d: Sum(rhs),rhsMax =  -7.77102353412534E-03  2.26011935513524E-01
 cg2d: Sum(rhs),rhsMax =  -7.77178016627047E-03  2.26017083046285E-01
 cg2d: Sum(rhs),rhsMax =  -7.77253637502305E-03  2.26022228206007E-01
 cg2d: Sum(rhs),rhsMax =  -7.77329215646053E-03  2.26027370990217E-01
 cg2d: Sum(rhs),rhsMax =  -7.77404750644963E-03  2.26032511396434E-01
 cg2d: Sum(rhs),rhsMax =  -7.77480242057389E-03  2.26037649422205E-01
 cg2d: Sum(rhs),rhsMax =  -7.77555689457689E-03  2.26042785065058E-01
 cg2d: Sum(rhs),rhsMax =  -7.77631092508500E-03  2.26047918322553E-01
 cg2d: Sum(rhs),rhsMax =  -7.77706450708546E-03  2.26053049192243E-01
 cg2d: Sum(rhs),rhsMax =  -7.77781763663637E-03  2.26058177671692E-01
 cg2d: Sum(rhs),rhsMax =  -7.77857030933605E-03  2.26063303758471E-01
 cg2d: Sum(rhs),rhsMax =  -7.77932252065747E-03  2.26068427450157E-01
 cg2d: Sum(rhs),rhsMax =  -7.78007426647923E-03  2.26073548744342E-01
 cg2d: Sum(rhs),rhsMax =  -7.78082554285936E-03  2.26078667638610E-01
 cg2d: Sum(rhs),rhsMax =  -7.78157634452082E-03  2.26083784130560E-01
 cg2d: Sum(rhs),rhsMax =  -7.78232666805309E-03  2.26088898217802E-01
 cg2d: Sum(rhs),rhsMax =  -7.78307650846669E-03  2.26094009897952E-01
 cg2d: Sum(rhs),rhsMax =  -7.78382586158658E-03  2.26099119168630E-01
 cg2d: Sum(rhs),rhsMax =  -7.78457472325048E-03  2.26104226027462E-01
 cg2d: Sum(rhs),rhsMax =  -7.78532308873453E-03  2.26109330472085E-01
 cg2d: Sum(rhs),rhsMax =  -7.78607095323508E-03  2.26114432500139E-01
 cg2d: Sum(rhs),rhsMax =  -7.78681831303080E-03  2.26119532109276E-01
 cg2d: Sum(rhs),rhsMax =  -7.78756516284075E-03  2.26124629297159E-01
 cg2d: Sum(rhs),rhsMax =  -7.78831149901657E-03  2.26129724061445E-01
 cg2d: Sum(rhs),rhsMax =  -7.78905731580712E-03  2.26134816399804E-01
 cg2d: Sum(rhs),rhsMax =  -7.78980260986922E-03  2.26139906309919E-01
 cg2d: Sum(rhs),rhsMax =  -7.79054737579146E-03  2.26144993789482E-01
 cg2d: Sum(rhs),rhsMax =  -7.79129160938304E-03  2.26150078836175E-01
 cg2d: Sum(rhs),rhsMax =  -7.79203530615919E-03  2.26155161447702E-01
 cg2d: Sum(rhs),rhsMax =  -7.79277846084220E-03  2.26160241621780E-01
 cg2d: Sum(rhs),rhsMax =  -7.79352106936157E-03  2.26165319356114E-01
 cg2d: Sum(rhs),rhsMax =  -7.79426312693241E-03  2.26170394648429E-01
 cg2d: Sum(rhs),rhsMax =  -7.79500462859619E-03  2.26175467496459E-01
 cg2d: Sum(rhs),rhsMax =  -7.79574557004958E-03  2.26180537897939E-01
 cg2d: Sum(rhs),rhsMax =  -7.79648594591488E-03  2.26185605850609E-01
 cg2d: Sum(rhs),rhsMax =  -7.79722575232079E-03  2.26190671352227E-01
 cg2d: Sum(rhs),rhsMax =  -7.79796498391267E-03  2.26195734400553E-01
 cg2d: Sum(rhs),rhsMax =  -7.79870363612150E-03  2.26200794993348E-01
 cg2d: Sum(rhs),rhsMax =  -7.79944170371641E-03  2.26205853128390E-01
 cg2d: Sum(rhs),rhsMax =  -7.80017918225675E-03  2.26210908803462E-01
 cg2d: Sum(rhs),rhsMax =  -7.80091606669338E-03  2.26215962016350E-01
 cg2d: Sum(rhs),rhsMax =  -7.80165235234528E-03  2.26221012764847E-01
(PID.TID 0000.0001)      cg2d_init_res =   3.34254175503751E-04
(PID.TID 0000.0001)      cg2d_iters(min,last) =      -1      68
(PID.TID 0000.0001)      cg2d_last_res =   8.97019081187465E-08
(PID.TID 0000.0001) // =======================================================
(PID.TID 0000.0001) // Begin MONITOR dynamic field statistics
(PID.TID 0000.0001) // =======================================================
(PID.TID 0000.0001) %MON time_tsnumber                =                 17928
(PID.TID 0000.0001) %MON time_secondsf                =   2.1513600000000E+07
(PID.TID 0000.0001) %MON dynstat_eta_max              =   3.6805358599663E-01
(PID.TID 0000.0001) %MON dynstat_eta_min              =  -1.1568206170449E-01
(PID.TID 0000.0001) %MON dynstat_eta_mean             =   8.8209953426696E-06
(PID.TID 0000.0001) %MON dynstat_eta_sd               =   1.4116049248830E-01
(PID.TID 0000.0001) %MON dynstat_eta_del2             =   3.6047269298510E-05
(PID.TID 0000.0001) %MON dynstat_uvel_max             =   1.7318768536074E-01
(PID.TID 0000.0001) %MON dynstat_uvel_min             =  -1.3806576075471E-01
(PID.TID 0000.0001) %MON dynstat_uvel_mean            =   2.0758236392720E-08
(PID.TID 0000.0001) %MON dynstat_uvel_sd              =   5.7560720746928E-02
(PID.TID 0000.0001) %MON dynstat_uvel_del2            =   7.6152977436448E-05
(PID.TID 0000.0001) %MON dynstat_vvel_max             =   1.2049906157997E-01
(PID.TID 0000.0001) %MON dynstat_vvel_min             =  -1.4785004560937E-01
(PID.TID 0000.0001) %MON dynstat_vvel_mean            =   9.8252907580216E-08
(PID.TID 0000.0001) %MON dynstat_vvel_sd              =   5.2834406655502E-02
(PID.TID 0000.0001) %MON dynstat_vvel_del2            =   3.7244219732343E-05
(PID.TID 0000.0001) %MON dynstat_wvel_max             =   1.2771670949442E-08
(PID.TID 0000.0001) %MON dynstat_wvel_min             =  -5.1498579524923E-09
(PID.TID 0000.0001) %MON dynstat_wvel_mean            =  -1.4795139375363E-21
(PID.TID 0000.0001) %MON dynstat_wvel_sd              =   4.2774184807663E-09
(PID.TID 0000.0001) %MON dynstat_wvel_del2            =   1.2563622302458E-12
(PID.TID 0000.0001) %MON dynstat_theta_max            =   2.0000000000000E+01
(PID.TID 0000.0001) %MON dynstat_theta_min            =   2.0000000000000E+01
(PID.TID 0000.0001) %MON dynstat_theta_mean           =   2.0000000000000E+01
(PID.TID 0000.0001) %MON dynstat_theta_sd             =   3.8014036363165E-13
(PID.TID 0000.0001) %MON dynstat_theta_del2           =   0.0000000000000E+00
(PID.TID 0000.0001) %MON dynstat_salt_max             =   3.0000000000000E+01
(PID.TID 0000.0001) %MON dynstat_salt_min             =   3.0000000000000E+01
(PID.TID 0000.0001) %MON dynstat_salt_mean            =   2.9999999999999E+01
(PID.TID 0000.0001) %MON dynstat_salt_sd              =   5.5777604757167E-13
(PID.TID 0000.0001) %MON dynstat_salt_del2            =   0.0000000000000E+00
(PID.TID 0000.0001) %MON trAdv_CFL_u_max              =   1.0390153301669E-02
(PID.TID 0000.0001) %MON trAdv_CFL_v_max              =   8.8591538577014E-03
(PID.TID 0000.0001) %MON trAdv_CFL_w_max              =   3.3498582933026E-09
(PID.TID 0000.0001) %MON advcfl_uvel_max              =   1.0391261121644E-02
(PID.TID 0000.0001) %MON advcfl_vvel_max              =   8.8710027365623E-03
(PID.TID 0000.0001) %MON advcfl_wvel_max              =   6.1304020557320E-09
(PID.TID 0000.0001) %MON advcfl_W_hf_max              =   0.0000000000000E+00
(PID.TID 0000.0001) %MON pe_b_mean                    =   2.0429118376119E-05
(PID.TID 0000.0001) %MON ke_max                       =   1.5026418257760E-02
(PID.TID 0000.0001) %MON ke_mean                      =   2.9962269555153E-03
(PID.TID 0000.0001) %MON ke_vol                       =   6.8893493896486E+15
(PID.TID 0000.0001) %MON vort_r_min                   =  -1.0881645687055E-06
(PID.TID 0000.0001) %MON vort_r_max                   =   3.7106051334360E-06
(PID.TID 0000.0001) %MON vort_a_mean                  =   1.0600000000000E-04
(PID.TID 0000.0001) %MON vort_a_sd                    =   3.5781071151119E-06
(PID.TID 0000.0001) %MON vort_p_mean                  =   1.1652272308690E-04
(PID.TID 0000.0001) %MON vort_p_sd                    =   4.1792772509981E-05
(PID.TID 0000.0001) %MON surfExpan_theta_mean         =  -2.9570580552098E-20
(PID.TID 0000.0001) %MON surfExpan_salt_mean          =  -4.4359501257437E-20
(PID.TID 0000.0001) // =======================================================
(PID.TID 0000.0001) // End MONITOR dynamic field statistics
(PID.TID 0000.0001) // =======================================================
 cg2d: Sum(rhs),rhsMax =  -7.80238803412852E-03  2.26226061046765E-01
 cg2d: Sum(rhs),rhsMax =  -7.80312310739691E-03  2.26231106859906E-01
 cg2d: Sum(rhs),rhsMax =  -7.80385756734909E-03  2.26236150202095E-01
 cg2d: Sum(rhs),rhsMax =  -7.80459140849947E-03  2.26241191071153E-01
 cg2d: Sum(rhs),rhsMax =  -7.80532462627280E-03  2.26246229464916E-01
 cg2d: Sum(rhs),rhsMax =  -7.80605721575430E-03  2.26251265381225E-01
 cg2d: Sum(rhs),rhsMax =  -7.80678917172812E-03  2.26256298817926E-01
 cg2d: Sum(rhs),rhsMax =  -7.80752048946548E-03  2.26261329772875E-01
 cg2d: Sum(rhs),rhsMax =  -7.80825116327432E-03  2.26266358243936E-01
 cg2d: Sum(rhs),rhsMax =  -7.80898118894350E-03  2.26271384228980E-01
 cg2d: Sum(rhs),rhsMax =  -7.80971056068345E-03  2.26276407725879E-01
 cg2d: Sum(rhs),rhsMax =  -7.81043927384794E-03  2.26281428732526E-01
 cg2d: Sum(rhs),rhsMax =  -7.81116732354705E-03  2.26286447246811E-01
 cg2d: Sum(rhs),rhsMax =  -7.81189470413054E-03  2.26291463266634E-01
 cg2d: Sum(rhs),rhsMax =  -7.81262141028718E-03  2.26296476789902E-01
 cg2d: Sum(rhs),rhsMax =  -7.81334743761187E-03  2.26301487814529E-01
 cg2d: Sum(rhs),rhsMax =  -7.81407278061582E-03  2.26306496338443E-01
 cg2d: Sum(rhs),rhsMax =  -7.81479743398589E-03  2.26311502359567E-01
 cg2d: Sum(rhs),rhsMax =  -7.81552139234649E-03  2.26316505875844E-01
 cg2d: Sum(rhs),rhsMax =  -7.81624465105608E-03  2.26321506885221E-01
 cg2d: Sum(rhs),rhsMax =  -7.81696720463793E-03  2.26326505385638E-01
 cg2d: Sum(rhs),rhsMax =  -7.81768904734769E-03  2.26331501375070E-01
 cg2d: Sum(rhs),rhsMax =  -7.81841017475900E-03  2.26336494851480E-01
 cg2d: Sum(rhs),rhsMax =  -7.81913058109182E-03  2.26341485812841E-01
 cg2d: Sum(rhs),rhsMax =  -7.81985026088150E-03  2.26346474257139E-01
 cg2d: Sum(rhs),rhsMax =  -7.82056920904407E-03  2.26351460182371E-01
 cg2d: Sum(rhs),rhsMax =  -7.82128742052908E-03  2.26356443586516E-01
 cg2d: Sum(rhs),rhsMax =  -7.82200488979491E-03  2.26361424467595E-01
 cg2d: Sum(rhs),rhsMax =  -7.82272161155030E-03  2.26366402823618E-01
 cg2d: Sum(rhs),rhsMax =  -7.82343757979417E-03  2.26371378652607E-01
 cg2d: Sum(rhs),rhsMax =  -7.82415278988102E-03  2.26376351952589E-01
 cg2d: Sum(rhs),rhsMax =  -7.82486723602035E-03  2.26381322721593E-01
 cg2d: Sum(rhs),rhsMax =  -7.82558091294438E-03  2.26386290957673E-01
 cg2d: Sum(rhs),rhsMax =  -7.82629381505581E-03  2.26391256658882E-01
 cg2d: Sum(rhs),rhsMax =  -7.82700593732277E-03  2.26396219823268E-01
 cg2d: Sum(rhs),rhsMax =  -7.82771727356501E-03  2.26401180448902E-01
 cg2d: Sum(rhs),rhsMax =  -7.82842781954544E-03  2.26406138533861E-01
 cg2d: Sum(rhs),rhsMax =  -7.82913756849711E-03  2.26411094076221E-01
 cg2d: Sum(rhs),rhsMax =  -7.82984651504061E-03  2.26416047074080E-01
 cg2d: Sum(rhs),rhsMax =  -7.83055465437922E-03  2.26420997525524E-01
 cg2d: Sum(rhs),rhsMax =  -7.83126198008019E-03  2.26425945428672E-01
 cg2d: Sum(rhs),rhsMax =  -7.83196848767744E-03  2.26430890781623E-01
 cg2d: Sum(rhs),rhsMax =  -7.83267417092692E-03  2.26435833582501E-01
 cg2d: Sum(rhs),rhsMax =  -7.83337902459109E-03  2.26440773829442E-01
 cg2d: Sum(rhs),rhsMax =  -7.83408304257526E-03  2.26445711520562E-01
 cg2d: Sum(rhs),rhsMax =  -7.83478621983499E-03  2.26450646654026E-01
 cg2d: Sum(rhs),rhsMax =  -7.83548855037207E-03  2.26455579227969E-01
 cg2d: Sum(rhs),rhsMax =  -7.83619002842198E-03  2.26460509240558E-01
 cg2d: Sum(rhs),rhsMax =  -7.83689064931970E-03  2.26465436689956E-01
 cg2d: Sum(rhs),rhsMax =  -7.83759040660710E-03  2.26470361574337E-01
 cg2d: Sum(rhs),rhsMax =  -7.83828929459103E-03  2.26475283891881E-01
 cg2d: Sum(rhs),rhsMax =  -7.83898730831285E-03  2.26480203640781E-01
 cg2d: Sum(rhs),rhsMax =  -7.83968444133713E-03  2.26485120819232E-01
 cg2d: Sum(rhs),rhsMax =  -7.84038068809973E-03  2.26490035425438E-01
 cg2d: Sum(rhs),rhsMax =  -7.84107604325934E-03  2.26494947457612E-01
 cg2d: Sum(rhs),rhsMax =  -7.84177050101901E-03  2.26499856913977E-01
 cg2d: Sum(rhs),rhsMax =  -7.84246405559361E-03  2.26504763792754E-01
 cg2d: Sum(rhs),rhsMax =  -7.84315670156945E-03  2.26509668092186E-01
 cg2d: Sum(rhs),rhsMax =  -7.84384843311722E-03  2.26514569810514E-01
 cg2d: Sum(rhs),rhsMax =  -7.84453924392488E-03  2.26519468945985E-01
 cg2d: Sum(rhs),rhsMax =  -7.84522912899747E-03  2.26524365496868E-01
 cg2d: Sum(rhs),rhsMax =  -7.84591808214297E-03  2.26529259461418E-01
 cg2d: Sum(rhs),rhsMax =  -7.84660609777090E-03  2.26534150837917E-01
 cg2d: Sum(rhs),rhsMax =  -7.84729317019528E-03  2.26539039624646E-01
 cg2d: Sum(rhs),rhsMax =  -7.84797929407722E-03  2.26543925819893E-01
 cg2d: Sum(rhs),rhsMax =  -7.84866446295401E-03  2.26548809421956E-01
 cg2d: Sum(rhs),rhsMax =  -7.84934867106684E-03  2.26553690429147E-01
 cg2d: Sum(rhs),rhsMax =  -7.85003191289287E-03  2.26558568839768E-01
 cg2d: Sum(rhs),rhsMax =  -7.85071418274310E-03  2.26563444652154E-01
 cg2d: Sum(rhs),rhsMax =  -7.85139547486245E-03  2.26568317864625E-01
 cg2d: Sum(rhs),rhsMax =  -7.85207578355129E-03  2.26573188475519E-01
 cg2d: Sum(rhs),rhsMax =  -7.85275510266875E-03  2.26578056483184E-01
(PID.TID 0000.0001)      cg2d_init_res =   3.31835219248572E-04
(PID.TID 0000.0001)      cg2d_iters(min,last) =      -1      68
(PID.TID 0000.0001)      cg2d_last_res =   9.17909433110190E-08
(PID.TID 0000.0001) // =======================================================
(PID.TID 0000.0001) // Begin MONITOR dynamic field statistics
(PID.TID 0000.0001) // =======================================================
(PID.TID 0000.0001) %MON time_tsnumber                =                 18000
(PID.TID 0000.0001) %MON time_secondsf                =   2.1600000000000E+07
(PID.TID 0000.0001) %MON dynstat_eta_max              =   3.6912551938345E-01
(PID.TID 0000.0001) %MON dynstat_eta_min              =  -1.1590602509215E-01
(PID.TID 0000.0001) %MON dynstat_eta_mean             =   8.8927104814337E-06
(PID.TID 0000.0001) %MON dynstat_eta_sd               =   1.4151387497158E-01
(PID.TID 0000.0001) %MON dynstat_eta_del2             =   3.6127906688404E-05
(PID.TID 0000.0001) %MON dynstat_uvel_max             =   1.7352939556481E-01
(PID.TID 0000.0001) %MON dynstat_uvel_min             =  -1.3843810454700E-01
(PID.TID 0000.0001) %MON dynstat_uvel_mean            =   2.0250167873019E-08
(PID.TID 0000.0001) %MON dynstat_uvel_sd              =   5.7696907500771E-02
(PID.TID 0000.0001) %MON dynstat_uvel_del2            =   7.6221255178730E-05
(PID.TID 0000.0001) %MON dynstat_vvel_max             =   1.2084108032513E-01
(PID.TID 0000.0001) %MON dynstat_vvel_min             =  -1.4820875484383E-01
(PID.TID 0000.0001) %MON dynstat_vvel_mean            =   9.3381150471508E-08
(PID.TID 0000.0001) %MON dynstat_vvel_sd              =   5.2975177297560E-02
(PID.TID 0000.0001) %MON dynstat_vvel_del2            =   3.7245374858314E-05
(PID.TID 0000.0001) %MON dynstat_wvel_max             =   1.2718464604695E-08
(PID.TID 0000.0001) %MON dynstat_wvel_min             =  -4.9830644304166E-09
(PID.TID 0000.0001) %MON dynstat_wvel_mean            =  -1.1112656971414E-20
(PID.TID 0000.0001) %MON dynstat_wvel_sd              =   4.2609935229423E-09
(PID.TID 0000.0001) %MON dynstat_wvel_del2            =   1.2535321414817E-12
(PID.TID 0000.0001) %MON dynstat_theta_max            =   2.0000000000000E+01
(PID.TID 0000.0001) %MON dynstat_theta_min            =   2.0000000000000E+01
(PID.TID 0000.0001) %MON dynstat_theta_mean           =   2.0000000000000E+01
(PID.TID 0000.0001) %MON dynstat_theta_sd             =   3.8014036363165E-13
(PID.TID 0000.0001) %MON dynstat_theta_del2           =   0.0000000000000E+00
(PID.TID 0000.0001) %MON dynstat_salt_max             =   3.0000000000000E+01
(PID.TID 0000.0001) %MON dynstat_salt_min             =   3.0000000000000E+01
(PID.TID 0000.0001) %MON dynstat_salt_mean            =   2.9999999999999E+01
(PID.TID 0000.0001) %MON dynstat_salt_sd              =   5.5777604757167E-13
(PID.TID 0000.0001) %MON dynstat_salt_del2            =   0.0000000000000E+00
(PID.TID 0000.0001) %MON trAdv_CFL_u_max              =   1.0410658240375E-02
(PID.TID 0000.0001) %MON trAdv_CFL_v_max              =   8.8806461254252E-03
(PID.TID 0000.0001) %MON trAdv_CFL_w_max              =   3.3391798464409E-09
(PID.TID 0000.0001) %MON advcfl_uvel_max              =   1.0411763733889E-02
(PID.TID 0000.0001) %MON advcfl_vvel_max              =   8.8925252906296E-03
(PID.TID 0000.0001) %MON advcfl_wvel_max              =   6.1048630102538E-09
(PID.TID 0000.0001) %MON advcfl_W_hf_max              =   0.0000000000000E+00
(PID.TID 0000.0001) %MON pe_b_mean                    =   2.0531531295503E-05
(PID.TID 0000.0001) %MON ke_max                       =   1.5086225779319E-02
(PID.TID 0000.0001) %MON ke_mean                      =   3.0112414110015E-03
(PID.TID 0000.0001) %MON ke_vol                       =   6.8893493896486E+15
(PID.TID 0000.0001) %MON vort_r_min                   =  -1.0910313852983E-06
(PID.TID 0000.0001) %MON vort_r_max                   =   3.7173216904491E-06
(PID.TID 0000.0001) %MON vort_a_mean                  =   1.0600000000000E-04
(PID.TID 0000.0001) %MON vort_a_sd                    =   3.5783327183659E-06
(PID.TID 0000.0001) %MON vort_p_mean                  =   1.1652272308690E-04
(PID.TID 0000.0001) %MON vort_p_sd                    =   4.1792789886976E-05
(PID.TID 0000.0001) %MON surfExpan_theta_mean         =  -2.2223345386152E-19
(PID.TID 0000.0001) %MON surfExpan_salt_mean          =  -3.3334765318453E-19
(PID.TID 0000.0001) // =======================================================
(PID.TID 0000.0001) // End MONITOR dynamic field statistics
(PID.TID 0000.0001) // =======================================================
 cg2d: Sum(rhs),rhsMax =  -7.85343342657218E-03  2.26582921885971E-01
 cg2d: Sum(rhs),rhsMax =  -7.85411074933216E-03  2.26587784682237E-01
 cg2d: Sum(rhs),rhsMax =  -7.85478706526872E-03  2.26592644870355E-01
 cg2d: Sum(rhs),rhsMax =  -7.85546236891353E-03  2.26597502448699E-01
 cg2d: Sum(rhs),rhsMax =  -7.85613665425770E-03  2.26602357415657E-01
 cg2d: Sum(rhs),rhsMax =  -7.85680991535517E-03  2.26607209769613E-01
 cg2d: Sum(rhs),rhsMax =  -7.85748214645426E-03  2.26612059508973E-01
 cg2d: Sum(rhs),rhsMax =  -7.85815334176958E-03  2.26616906632147E-01
 cg2d: Sum(rhs),rhsMax =  -7.85882349551920E-03  2.26621751137545E-01
 cg2d: Sum(rhs),rhsMax =  -7.85949260188360E-03  2.26626593023588E-01
 cg2d: Sum(rhs),rhsMax =  -7.86016065541084E-03  2.26631432288714E-01
 cg2d: Sum(rhs),rhsMax =  -7.86082764973878E-03  2.26636268931361E-01
 cg2d: Sum(rhs),rhsMax =  -7.86149357911016E-03  2.26641102949970E-01
 cg2d: Sum(rhs),rhsMax =  -7.86215843827183E-03  2.26645934343005E-01
 cg2d: Sum(rhs),rhsMax =  -7.86282222137182E-03  2.26650763108923E-01
 cg2d: Sum(rhs),rhsMax =  -7.86348492240899E-03  2.26655589246197E-01
 cg2d: Sum(rhs),rhsMax =  -7.86414653576154E-03  2.26660412753301E-01
 cg2d: Sum(rhs),rhsMax =  -7.86480705499221E-03  2.26665233628728E-01
 cg2d: Sum(rhs),rhsMax =  -7.86546647536334E-03  2.26670051870970E-01
 cg2d: Sum(rhs),rhsMax =  -7.86612479072562E-03  2.26674867478525E-01
 cg2d: Sum(rhs),rhsMax =  -7.86678199515584E-03  2.26679680449915E-01
 cg2d: Sum(rhs),rhsMax =  -7.86743808331255E-03  2.26684490783649E-01
 cg2d: Sum(rhs),rhsMax =  -7.86809304871593E-03  2.26689298478250E-01
 cg2d: Sum(rhs),rhsMax =  -7.86874688632797E-03  2.26694103532264E-01
 cg2d: Sum(rhs),rhsMax =  -7.86939958997699E-03  2.26698905944226E-01
 cg2d: Sum(rhs),rhsMax =  -7.87005115471767E-03  2.26703705712682E-01
 cg2d: Sum(rhs),rhsMax =  -7.87070157450355E-03  2.26708502836196E-01
 cg2d: Sum(rhs),rhsMax =  -7.87135084337633E-03  2.26713297313333E-01
 cg2d: Sum(rhs),rhsMax =  -7.87199895581953E-03  2.26718089142669E-01
 cg2d: Sum(rhs),rhsMax =  -7.87264590592166E-03  2.26722878322782E-01
 cg2d: Sum(rhs),rhsMax =  -7.87329168847139E-03  2.26727664852266E-01
 cg2d: Sum(rhs),rhsMax =  -7.87393629776750E-03  2.26732448729713E-01
 cg2d: Sum(rhs),rhsMax =  -7.87457972860965E-03  2.26737229953732E-01
 cg2d: Sum(rhs),rhsMax =  -7.87522197428274E-03  2.26742008522938E-01
 cg2d: Sum(rhs),rhsMax =  -7.87586303002552E-03  2.26746784435953E-01
 cg2d: Sum(rhs),rhsMax =  -7.87650288983071E-03  2.26751557691405E-01
 cg2d: Sum(rhs),rhsMax =  -7.87714154847919E-03  2.26756328287935E-01
 cg2d: Sum(rhs),rhsMax =  -7.87777900079465E-03  2.26761096224185E-01
 cg2d: Sum(rhs),rhsMax =  -7.87841524051485E-03  2.26765861498812E-01
 cg2d: Sum(rhs),rhsMax =  -7.87905026256324E-03  2.26770624110473E-01
 cg2d: Sum(rhs),rhsMax =  -7.87968406149055E-03  2.26775384057842E-01
 cg2d: Sum(rhs),rhsMax =  -7.88031663166467E-03  2.26780141339598E-01
 cg2d: Sum(rhs),rhsMax =  -7.88094796802232E-03  2.26784895954425E-01
 cg2d: Sum(rhs),rhsMax =  -7.88157806464362E-03  2.26789647901020E-01
 cg2d: Sum(rhs),rhsMax =  -7.88220691663474E-03  2.26794397178079E-01
 cg2d: Sum(rhs),rhsMax =  -7.88283451831018E-03  2.26799143784316E-01
 cg2d: Sum(rhs),rhsMax =  -7.88346086413893E-03  2.26803887718448E-01
 cg2d: Sum(rhs),rhsMax =  -7.88408594942032E-03  2.26808628979201E-01
 cg2d: Sum(rhs),rhsMax =  -7.88470976863476E-03  2.26813367565311E-01
 cg2d: Sum(rhs),rhsMax =  -7.88533231633322E-03  2.26818103475518E-01
 cg2d: Sum(rhs),rhsMax =  -7.88595358739601E-03  2.26822836708573E-01
 cg2d: Sum(rhs),rhsMax =  -7.88657357684863E-03  2.26827567263235E-01
 cg2d: Sum(rhs),rhsMax =  -7.88719227912031E-03  2.26832295138269E-01
 cg2d: Sum(rhs),rhsMax =  -7.88780968953694E-03  2.26837020332453E-01
 cg2d: Sum(rhs),rhsMax =  -7.88842580235271E-03  2.26841742844563E-01
 cg2d: Sum(rhs),rhsMax =  -7.88904061295141E-03  2.26846462673396E-01
 cg2d: Sum(rhs),rhsMax =  -7.88965411624491E-03  2.26851179817747E-01
 cg2d: Sum(rhs),rhsMax =  -7.89026630757431E-03  2.26855894276428E-01
 cg2d: Sum(rhs),rhsMax =  -7.89087718139617E-03  2.26860606048247E-01
 cg2d: Sum(rhs),rhsMax =  -7.89148673281465E-03  2.26865315132029E-01
 cg2d: Sum(rhs),rhsMax =  -7.89209495719664E-03  2.26870021526607E-01
 cg2d: Sum(rhs),rhsMax =  -7.89270184958361E-03  2.26874725230815E-01
 cg2d: Sum(rhs),rhsMax =  -7.89330740498919E-03  2.26879426243507E-01
 cg2d: Sum(rhs),rhsMax =  -7.89391161911033E-03  2.26884124563533E-01
 cg2d: Sum(rhs),rhsMax =  -7.89451448639690E-03  2.26888820189765E-01
 cg2d: Sum(rhs),rhsMax =  -7.89511600300407E-03  2.26893513121061E-01
 cg2d: Sum(rhs),rhsMax =  -7.89571616367077E-03  2.26898203356315E-01
 cg2d: Sum(rhs),rhsMax =  -7.89631496382637E-03  2.26902890894405E-01
 cg2d: Sum(rhs),rhsMax =  -7.89691239920580E-03  2.26907575734226E-01
 cg2d: Sum(rhs),rhsMax =  -7.89750846537550E-03  2.26912257874689E-01
 cg2d: Sum(rhs),rhsMax =  -7.89810315728435E-03  2.26916937314702E-01
 cg2d: Sum(rhs),rhsMax =  -7.89869647151484E-03  2.26921614053185E-01
(PID.TID 0000.0001)      cg2d_init_res =   3.29391185221094E-04
(PID.TID 0000.0001)      cg2d_iters(min,last) =      -1      68
(PID.TID 0000.0001)      cg2d_last_res =   9.43071567837253E-08
(PID.TID 0000.0001) // =======================================================
(PID.TID 0000.0001) // Begin MONITOR dynamic field statistics
(PID.TID 0000.0001) // =======================================================
(PID.TID 0000.0001) %MON time_tsnumber                =                 18072
(PID.TID 0000.0001) %MON time_secondsf                =   2.1686400000000E+07
(PID.TID 0000.0001) %MON dynstat_eta_max              =   3.7019628218747E-01
(PID.TID 0000.0001) %MON dynstat_eta_min              =  -1.1613255595916E-01
(PID.TID 0000.0001) %MON dynstat_eta_mean             =   8.9581884286726E-06
(PID.TID 0000.0001) %MON dynstat_eta_sd               =   1.4186618646743E-01
(PID.TID 0000.0001) %MON dynstat_eta_del2             =   3.6208458671163E-05
(PID.TID 0000.0001) %MON dynstat_uvel_max             =   1.7386582929110E-01
(PID.TID 0000.0001) %MON dynstat_uvel_min             =  -1.3880365602430E-01
(PID.TID 0000.0001) %MON dynstat_uvel_mean            =   1.8709778637274E-08
(PID.TID 0000.0001) %MON dynstat_uvel_sd              =   5.7831266629464E-02
(PID.TID 0000.0001) %MON dynstat_uvel_del2            =   7.6288023603622E-05
(PID.TID 0000.0001) %MON dynstat_vvel_max             =   1.2119125128567E-01
(PID.TID 0000.0001) %MON dynstat_vvel_min             =  -1.4857008435248E-01
(PID.TID 0000.0001) %MON dynstat_vvel_mean            =   8.8905305035136E-08
(PID.TID 0000.0001) %MON dynstat_vvel_sd              =   5.3117051048823E-02
(PID.TID 0000.0001) %MON dynstat_vvel_del2            =   3.7243908632097E-05
(PID.TID 0000.0001) %MON dynstat_wvel_max             =   1.2661295489379E-08
(PID.TID 0000.0001) %MON dynstat_wvel_min             =  -4.8034226690652E-09
(PID.TID 0000.0001) %MON dynstat_wvel_mean            =  -1.1765805033469E-20
(PID.TID 0000.0001) %MON dynstat_wvel_sd              =   4.2457933338951E-09
(PID.TID 0000.0001) %MON dynstat_wvel_del2            =   1.2502318951954E-12
(PID.TID 0000.0001) %MON dynstat_theta_max            =   2.0000000000000E+01
(PID.TID 0000.0001) %MON dynstat_theta_min            =   2.0000000000000E+01
(PID.TID 0000.0001) %MON dynstat_theta_mean           =   2.0000000000000E+01
(PID.TID 0000.0001) %MON dynstat_theta_sd             =   3.8014036363165E-13
(PID.TID 0000.0001) %MON dynstat_theta_del2           =   0.0000000000000E+00
(PID.TID 0000.0001) %MON dynstat_salt_max             =   3.0000000000000E+01
(PID.TID 0000.0001) %MON dynstat_salt_min             =   3.0000000000000E+01
(PID.TID 0000.0001) %MON dynstat_salt_mean            =   2.9999999999999E+01
(PID.TID 0000.0001) %MON dynstat_salt_sd              =   5.5777604757167E-13
(PID.TID 0000.0001) %MON dynstat_salt_del2            =   0.0000000000000E+00
(PID.TID 0000.0001) %MON trAdv_CFL_u_max              =   1.0430847492970E-02
(PID.TID 0000.0001) %MON trAdv_CFL_v_max              =   8.9022955643236E-03
(PID.TID 0000.0001) %MON trAdv_CFL_w_max              =   3.3280227977039E-09
(PID.TID 0000.0001) %MON advcfl_uvel_max              =   1.0431949757466E-02
(PID.TID 0000.0001) %MON advcfl_vvel_max              =   8.9142050611489E-03
(PID.TID 0000.0001) %MON advcfl_wvel_max              =   6.0774218349019E-09
(PID.TID 0000.0001) %MON advcfl_W_hf_max              =   0.0000000000000E+00
(PID.TID 0000.0001) %MON pe_b_mean                    =   2.0633888732572E-05
(PID.TID 0000.0001) %MON ke_max                       =   1.5145294821511E-02
(PID.TID 0000.0001) %MON ke_mean                      =   3.0262472881442E-03
(PID.TID 0000.0001) %MON ke_vol                       =   6.8893493896486E+15
(PID.TID 0000.0001) %MON vort_r_min                   =  -1.0938930267181E-06
(PID.TID 0000.0001) %MON vort_r_max                   =   3.7239244641152E-06
(PID.TID 0000.0001) %MON vort_a_mean                  =   1.0600000000000E-04
(PID.TID 0000.0001) %MON vort_a_sd                    =   3.5785564711624E-06
(PID.TID 0000.0001) %MON vort_p_mean                  =   1.1652272308690E-04
(PID.TID 0000.0001) %MON vort_p_sd                    =   4.1792803498968E-05
(PID.TID 0000.0001) %MON surfExpan_theta_mean         =  -2.3531091149683E-19
(PID.TID 0000.0001) %MON surfExpan_salt_mean          =  -3.5297331477422E-19
(PID.TID 0000.0001) // =======================================================
(PID.TID 0000.0001) // End MONITOR dynamic field statistics
(PID.TID 0000.0001) // =======================================================
 cg2d: Sum(rhs),rhsMax =  -7.89928840262781E-03  2.26926288089066E-01
 cg2d: Sum(rhs),rhsMax =  -7.89987894649566E-03  2.26930959421281E-01
 cg2d: Sum(rhs),rhsMax =  -7.90046809907452E-03  2.26935628048784E-01
 cg2d: Sum(rhs),rhsMax =  -7.90105585586651E-03  2.26940293970515E-01
 cg2d: Sum(rhs),rhsMax =  -7.90164221252245E-03  2.26944957185439E-01
 cg2d: Sum(rhs),rhsMax =  -7.90222716588062E-03  2.26949617692528E-01
 cg2d: Sum(rhs),rhsMax =  -7.90281071091593E-03  2.26954275490758E-01
 cg2d: Sum(rhs),rhsMax =  -7.90339284397787E-03  2.26958930579108E-01
 cg2d: Sum(rhs),rhsMax =  -7.90397356083031E-03  2.26963582956583E-01
 cg2d: Sum(rhs),rhsMax =  -7.90455285763569E-03  2.26968232622173E-01
 cg2d: Sum(rhs),rhsMax =  -7.90513073058003E-03  2.26972879574898E-01
 cg2d: Sum(rhs),rhsMax =  -7.90570717570529E-03  2.26977523813773E-01
 cg2d: Sum(rhs),rhsMax =  -7.90628218970080E-03  2.26982165337818E-01
 cg2d: Sum(rhs),rhsMax =  -7.90685576852792E-03  2.26986804146073E-01
 cg2d: Sum(rhs),rhsMax =  -7.90742790866749E-03  2.26991440237580E-01
 cg2d: Sum(rhs),rhsMax =  -7.90799860664229E-03  2.26996073611388E-01
 cg2d: Sum(rhs),rhsMax =  -7.90856785901239E-03  2.27000704266554E-01
 cg2d: Sum(rhs),rhsMax =  -7.90913566206439E-03  2.27005332202149E-01
 cg2d: Sum(rhs),rhsMax =  -7.90970201232882E-03  2.27009957417250E-01
 cg2d: Sum(rhs),rhsMax =  -7.91026690718949E-03  2.27014579910931E-01
 cg2d: Sum(rhs),rhsMax =  -7.91083034299106E-03  2.27019199682293E-01
 cg2d: Sum(rhs),rhsMax =  -7.91139231628862E-03  2.27023816730432E-01
 cg2d: Sum(rhs),rhsMax =  -7.91195282443371E-03  2.27028431054459E-01
 cg2d: Sum(rhs),rhsMax =  -7.91251186418169E-03  2.27033042653483E-01
 cg2d: Sum(rhs),rhsMax =  -7.91306943247966E-03  2.27037651526635E-01
 cg2d: Sum(rhs),rhsMax =  -7.91362552705204E-03  2.27042257673041E-01
 cg2d: Sum(rhs),rhsMax =  -7.91418014409888E-03  2.27046861091846E-01
 cg2d: Sum(rhs),rhsMax =  -7.91473328194378E-03  2.27051461782204E-01
 cg2d: Sum(rhs),rhsMax =  -7.91528493762517E-03  2.27056059743262E-01
 cg2d: Sum(rhs),rhsMax =  -7.91583510796040E-03  2.27060654974189E-01
 cg2d: Sum(rhs),rhsMax =  -7.91638379149675E-03  2.27065247474159E-01
 cg2d: Sum(rhs),rhsMax =  -7.91693098506820E-03  2.27069837242356E-01
 cg2d: Sum(rhs),rhsMax =  -7.91747668605006E-03  2.27074424277968E-01
 cg2d: Sum(rhs),rhsMax =  -7.91802089308219E-03  2.27079008580188E-01
 cg2d: Sum(rhs),rhsMax =  -7.91856360331947E-03  2.27083590148231E-01
 cg2d: Sum(rhs),rhsMax =  -7.91910481513580E-03  2.27088168981307E-01
 cg2d: Sum(rhs),rhsMax =  -7.91964452631689E-03  2.27092745078639E-01
 cg2d: Sum(rhs),rhsMax =  -7.92018273503737E-03  2.27097318439459E-01
 cg2d: Sum(rhs),rhsMax =  -7.92071943955578E-03  2.27101889063003E-01
 cg2d: Sum(rhs),rhsMax =  -7.92125463782284E-03  2.27106456948525E-01
 cg2d: Sum(rhs),rhsMax =  -7.92178832844271E-03  2.27111022095273E-01
 cg2d: Sum(rhs),rhsMax =  -7.92232051015719E-03  2.27115584502518E-01
 cg2d: Sum(rhs),rhsMax =  -7.92285118135863E-03  2.27120144169523E-01
 cg2d: Sum(rhs),rhsMax =  -7.92338033986467E-03  2.27124701095579E-01
 cg2d: Sum(rhs),rhsMax =  -7.92390798506052E-03  2.27129255279968E-01
 cg2d: Sum(rhs),rhsMax =  -7.92443411563793E-03  2.27133806721982E-01
 cg2d: Sum(rhs),rhsMax =  -7.92495873083927E-03  2.27138355420938E-01
 cg2d: Sum(rhs),rhsMax =  -7.92548182968460E-03  2.27142901376146E-01
 cg2d: Sum(rhs),rhsMax =  -7.92600341066252E-03  2.27147444586918E-01
 cg2d: Sum(rhs),rhsMax =  -7.92652347339024E-03  2.27151985052597E-01
 cg2d: Sum(rhs),rhsMax =  -7.92704201701469E-03  2.27156522772509E-01
 cg2d: Sum(rhs),rhsMax =  -7.92755904120051E-03  2.27161057746010E-01
 cg2d: Sum(rhs),rhsMax =  -7.92807454545636E-03  2.27165589972450E-01
 cg2d: Sum(rhs),rhsMax =  -7.92858852899806E-03  2.27170119451191E-01
 cg2d: Sum(rhs),rhsMax =  -7.92910099198495E-03  2.27174646181604E-01
 cg2d: Sum(rhs),rhsMax =  -7.92961193381326E-03  2.27179170163071E-01
 cg2d: Sum(rhs),rhsMax =  -7.93012135493501E-03  2.27183691394979E-01
 cg2d: Sum(rhs),rhsMax =  -7.93062925526745E-03  2.27188209876719E-01
 cg2d: Sum(rhs),rhsMax =  -7.93113563461897E-03  2.27192725607704E-01
 cg2d: Sum(rhs),rhsMax =  -7.93164049301147E-03  2.27197238587338E-01
 cg2d: Sum(rhs),rhsMax =  -7.93214383126906E-03  2.27201748815039E-01
 cg2d: Sum(rhs),rhsMax =  -7.93264565011132E-03  2.27206256290251E-01
 cg2d: Sum(rhs),rhsMax =  -7.93314594950762E-03  2.27210761012394E-01
 cg2d: Sum(rhs),rhsMax =  -7.93364473020883E-03  2.27215262980922E-01
 cg2d: Sum(rhs),rhsMax =  -7.93414199367599E-03  2.27219762195288E-01
 cg2d: Sum(rhs),rhsMax =  -7.93463774016492E-03  2.27224258654951E-01
 cg2d: Sum(rhs),rhsMax =  -7.93513197052299E-03  2.27228752359385E-01
 cg2d: Sum(rhs),rhsMax =  -7.93562468673488E-03  2.27233243308065E-01
 cg2d: Sum(rhs),rhsMax =  -7.93611588911235E-03  2.27237731500479E-01
 cg2d: Sum(rhs),rhsMax =  -7.93660557977648E-03  2.27242216936119E-01
 cg2d: Sum(rhs),rhsMax =  -7.93709376031028E-03  2.27246699614497E-01
 cg2d: Sum(rhs),rhsMax =  -7.93758043193676E-03  2.27251179535112E-01
(PID.TID 0000.0001)      cg2d_init_res =   3.26860880681769E-04
(PID.TID 0000.0001)      cg2d_iters(min,last) =      -1      68
(PID.TID 0000.0001)      cg2d_last_res =   9.68381329309949E-08
(PID.TID 0000.0001) // =======================================================
(PID.TID 0000.0001) // Begin MONITOR dynamic field statistics
(PID.TID 0000.0001) // =======================================================
(PID.TID 0000.0001) %MON time_tsnumber                =                 18144
(PID.TID 0000.0001) %MON time_secondsf                =   2.1772800000000E+07
(PID.TID 0000.0001) %MON dynstat_eta_max              =   3.7126591319366E-01
(PID.TID 0000.0001) %MON dynstat_eta_min              =  -1.1636146389309E-01
(PID.TID 0000.0001) %MON dynstat_eta_mean             =   9.0152297564391E-06
(PID.TID 0000.0001) %MON dynstat_eta_sd               =   1.4221759652586E-01
(PID.TID 0000.0001) %MON dynstat_eta_del2             =   3.6288828238570E-05
(PID.TID 0000.0001) %MON dynstat_uvel_max             =   1.7419597438706E-01
(PID.TID 0000.0001) %MON dynstat_uvel_min             =  -1.3916390441219E-01
(PID.TID 0000.0001) %MON dynstat_uvel_mean            =   1.6312703593218E-08
(PID.TID 0000.0001) %MON dynstat_uvel_sd              =   5.7964115966488E-02
(PID.TID 0000.0001) %MON dynstat_uvel_del2            =   7.6353011336267E-05
(PID.TID 0000.0001) %MON dynstat_vvel_max             =   1.2155022868244E-01
(PID.TID 0000.0001) %MON dynstat_vvel_min             =  -1.4893383764566E-01
(PID.TID 0000.0001) %MON dynstat_vvel_mean            =   8.4958172369633E-08
(PID.TID 0000.0001) %MON dynstat_vvel_sd              =   5.3259734889748E-02
(PID.TID 0000.0001) %MON dynstat_vvel_del2            =   3.7240254181801E-05
(PID.TID 0000.0001) %MON dynstat_wvel_max             =   1.2610177809111E-08
(PID.TID 0000.0001) %MON dynstat_wvel_min             =  -4.5990767341573E-09
(PID.TID 0000.0001) %MON dynstat_wvel_mean            =   1.8564050050271E-22
(PID.TID 0000.0001) %MON dynstat_wvel_sd              =   4.2320093567227E-09
(PID.TID 0000.0001) %MON dynstat_wvel_del2            =   1.2462147787232E-12
(PID.TID 0000.0001) %MON dynstat_theta_max            =   2.0000000000000E+01
(PID.TID 0000.0001) %MON dynstat_theta_min            =   2.0000000000000E+01
(PID.TID 0000.0001) %MON dynstat_theta_mean           =   2.0000000000000E+01
(PID.TID 0000.0001) %MON dynstat_theta_sd             =   3.8014036363165E-13
(PID.TID 0000.0001) %MON dynstat_theta_del2           =   0.0000000000000E+00
(PID.TID 0000.0001) %MON dynstat_salt_max             =   3.0000000000000E+01
(PID.TID 0000.0001) %MON dynstat_salt_min             =   3.0000000000000E+01
(PID.TID 0000.0001) %MON dynstat_salt_mean            =   2.9999999999999E+01
(PID.TID 0000.0001) %MON dynstat_salt_sd              =   5.5777604757167E-13
(PID.TID 0000.0001) %MON dynstat_salt_del2            =   0.0000000000000E+00
(PID.TID 0000.0001) %MON trAdv_CFL_u_max              =   1.0450660265351E-02
(PID.TID 0000.0001) %MON trAdv_CFL_v_max              =   8.9240904059657E-03
(PID.TID 0000.0001) %MON trAdv_CFL_w_max              =   3.3165723298403E-09
(PID.TID 0000.0001) %MON advcfl_uvel_max              =   1.0451758463224E-02
(PID.TID 0000.0001) %MON advcfl_vvel_max              =   8.9360302587395E-03
(PID.TID 0000.0001) %MON advcfl_wvel_max              =   6.0528853483731E-09
(PID.TID 0000.0001) %MON advcfl_W_hf_max              =   0.0000000000000E+00
(PID.TID 0000.0001) %MON pe_b_mean                    =   2.0736237809159E-05
(PID.TID 0000.0001) %MON ke_max                       =   1.5203441095311E-02
(PID.TID 0000.0001) %MON ke_mean                      =   3.0412470895937E-03
(PID.TID 0000.0001) %MON ke_vol                       =   6.8893493896486E+15
(PID.TID 0000.0001) %MON vort_r_min                   =  -1.0967508281020E-06
(PID.TID 0000.0001) %MON vort_r_max                   =   3.7303917887722E-06
(PID.TID 0000.0001) %MON vort_a_mean                  =   1.0600000000000E-04
(PID.TID 0000.0001) %MON vort_a_sd                    =   3.5787783364026E-06
(PID.TID 0000.0001) %MON vort_p_mean                  =   1.1652272308690E-04
(PID.TID 0000.0001) %MON vort_p_sd                    =   4.1792813861316E-05
(PID.TID 0000.0001) %MON surfExpan_theta_mean         =   3.7131384386966E-21
(PID.TID 0000.0001) %MON surfExpan_salt_mean          =   5.5621285355301E-21
(PID.TID 0000.0001) // =======================================================
(PID.TID 0000.0001) // End MONITOR dynamic field statistics
(PID.TID 0000.0001) // =======================================================
 cg2d: Sum(rhs),rhsMax =  -7.93806559594144E-03  2.27255656697494E-01
 cg2d: Sum(rhs),rhsMax =  -7.93854925492578E-03  2.27260131101168E-01
 cg2d: Sum(rhs),rhsMax =  -7.93903141033147E-03  2.27264602745668E-01
 cg2d: Sum(rhs),rhsMax =  -7.93951206486178E-03  2.27269071630536E-01
 cg2d: Sum(rhs),rhsMax =  -7.93999122038817E-03  2.27273537755332E-01
 cg2d: Sum(rhs),rhsMax =  -7.94046887941074E-03  2.27278001119611E-01
 cg2d: Sum(rhs),rhsMax =  -7.94094504390383E-03  2.27282461722952E-01
 cg2d: Sum(rhs),rhsMax =  -7.94141971690799E-03  2.27286919564915E-01
 cg2d: Sum(rhs),rhsMax =  -7.94189290102737E-03  2.27291374645105E-01
 cg2d: Sum(rhs),rhsMax =  -7.94236459921951E-03  2.27295826963103E-01
 cg2d: Sum(rhs),rhsMax =  -7.94283481400742E-03  2.27300276518518E-01
 cg2d: Sum(rhs),rhsMax =  -7.94330354906870E-03  2.27304723310957E-01
 cg2d: Sum(rhs),rhsMax =  -7.94377080689149E-03  2.27309167340043E-01
 cg2d: Sum(rhs),rhsMax =  -7.94423659124895E-03  2.27313608605400E-01
 cg2d: Sum(rhs),rhsMax =  -7.94470090602323E-03  2.27318047106668E-01
 cg2d: Sum(rhs),rhsMax =  -7.94516375425248E-03  2.27322482843484E-01
 cg2d: Sum(rhs),rhsMax =  -7.94562513957646E-03  2.27326915815503E-01
 cg2d: Sum(rhs),rhsMax =  -7.94608506624089E-03  2.27331346022387E-01
 cg2d: Sum(rhs),rhsMax =  -7.94654353805613E-03  2.27335773463803E-01
 cg2d: Sum(rhs),rhsMax =  -7.94700055922780E-03  2.27340198139433E-01
 cg2d: Sum(rhs),rhsMax =  -7.94745613358324E-03  2.27344620048956E-01
 cg2d: Sum(rhs),rhsMax =  -7.94791026613470E-03  2.27349039192070E-01
 cg2d: Sum(rhs),rhsMax =  -7.94836296041897E-03  2.27353455568473E-01
 cg2d: Sum(rhs),rhsMax =  -7.94881422231355E-03  2.27357869177880E-01
 cg2d: Sum(rhs),rhsMax =  -7.94926405554620E-03  2.27362280020000E-01
 cg2d: Sum(rhs),rhsMax =  -7.94971246541278E-03  2.27366688094569E-01
 cg2d: Sum(rhs),rhsMax =  -7.95015945691313E-03  2.27371093401321E-01
 cg2d: Sum(rhs),rhsMax =  -7.95060503529000E-03  2.27375495939997E-01
 cg2d: Sum(rhs),rhsMax =  -7.95104920570569E-03  2.27379895710349E-01
 cg2d: Sum(rhs),rhsMax =  -7.95149197350295E-03  2.27384292712135E-01
 cg2d: Sum(rhs),rhsMax =  -7.95193334435633E-03  2.27388686945123E-01
 cg2d: Sum(rhs),rhsMax =  -7.95237332416266E-03  2.27393078409098E-01
 cg2d: Sum(rhs),rhsMax =  -7.95281191828678E-03  2.27397467103836E-01
 cg2d: Sum(rhs),rhsMax =  -7.95324913245603E-03  2.27401853029132E-01
 cg2d: Sum(rhs),rhsMax =  -7.95368497366745E-03  2.27406236184788E-01
 cg2d: Sum(rhs),rhsMax =  -7.95411944716255E-03  2.27410616570610E-01
 cg2d: Sum(rhs),rhsMax =  -7.95455255984325E-03  2.27414994186428E-01
 cg2d: Sum(rhs),rhsMax =  -7.95498431801267E-03  2.27419369032054E-01
 cg2d: Sum(rhs),rhsMax =  -7.95541472826343E-03  2.27423741107325E-01
 cg2d: Sum(rhs),rhsMax =  -7.95584379711320E-03  2.27428110412092E-01
 cg2d: Sum(rhs),rhsMax =  -7.95627153190767E-03  2.27432476946197E-01
 cg2d: Sum(rhs),rhsMax =  -7.95669793913407E-03  2.27436840709508E-01
 cg2d: Sum(rhs),rhsMax =  -7.95712302615969E-03  2.27441201701883E-01
 cg2d: Sum(rhs),rhsMax =  -7.95754679983705E-03  2.27445559923205E-01
 cg2d: Sum(rhs),rhsMax =  -7.95796926804905E-03  2.27449915373360E-01
 cg2d: Sum(rhs),rhsMax =  -7.95839043821542E-03  2.27454268052230E-01
 cg2d: Sum(rhs),rhsMax =  -7.95881031818209E-03  2.27458617959726E-01
 cg2d: Sum(rhs),rhsMax =  -7.95922891478590E-03  2.27462965095752E-01
 cg2d: Sum(rhs),rhsMax =  -7.95964623694231E-03  2.27467309460227E-01
 cg2d: Sum(rhs),rhsMax =  -7.96006229208488E-03  2.27471651053080E-01
 cg2d: Sum(rhs),rhsMax =  -7.96047708835082E-03  2.27475989874242E-01
 cg2d: Sum(rhs),rhsMax =  -7.96089063437983E-03  2.27480325923649E-01
 cg2d: Sum(rhs),rhsMax =  -7.96130293808045E-03  2.27484659201260E-01
 cg2d: Sum(rhs),rhsMax =  -7.96171400816177E-03  2.27488989707035E-01
 cg2d: Sum(rhs),rhsMax =  -7.96212385305528E-03  2.27493317440937E-01
 cg2d: Sum(rhs),rhsMax =  -7.96253248142061E-03  2.27497642402938E-01
 cg2d: Sum(rhs),rhsMax =  -7.96293990265591E-03  2.27501964593031E-01
 cg2d: Sum(rhs),rhsMax =  -7.96334612592956E-03  2.27506284011196E-01
 cg2d: Sum(rhs),rhsMax =  -7.96375115972605E-03  2.27510600657444E-01
 cg2d: Sum(rhs),rhsMax =  -7.96415501310160E-03  2.27514914531780E-01
 cg2d: Sum(rhs),rhsMax =  -7.96455769620505E-03  2.27519225634218E-01
 cg2d: Sum(rhs),rhsMax =  -7.96495921772446E-03  2.27523533964786E-01
 cg2d: Sum(rhs),rhsMax =  -7.96535958763512E-03  2.27527839523518E-01
 cg2d: Sum(rhs),rhsMax =  -7.96575881576884E-03  2.27532142310454E-01
 cg2d: Sum(rhs),rhsMax =  -7.96615691160214E-03  2.27536442325642E-01
 cg2d: Sum(rhs),rhsMax =  -7.96655388485176E-03  2.27540739569147E-01
 cg2d: Sum(rhs),rhsMax =  -7.96694974627877E-03  2.27545034041027E-01
 cg2d: Sum(rhs),rhsMax =  -7.96734450575847E-03  2.27549325741366E-01
 cg2d: Sum(rhs),rhsMax =  -7.96773817319088E-03  2.27553614670235E-01
 cg2d: Sum(rhs),rhsMax =  -7.96813075891771E-03  2.27557900827736E-01
 cg2d: Sum(rhs),rhsMax =  -7.96852227366081E-03  2.27562184213968E-01
 cg2d: Sum(rhs),rhsMax =  -7.96891272842306E-03  2.27566464829032E-01
(PID.TID 0000.0001)      cg2d_init_res =   3.24206939079505E-04
(PID.TID 0000.0001)      cg2d_iters(min,last) =      -1      68
(PID.TID 0000.0001)      cg2d_last_res =   9.85962591115974E-08
(PID.TID 0000.0001) // =======================================================
(PID.TID 0000.0001) // Begin MONITOR dynamic field statistics
(PID.TID 0000.0001) // =======================================================
(PID.TID 0000.0001) %MON time_tsnumber                =                 18216
(PID.TID 0000.0001) %MON time_secondsf                =   2.1859200000000E+07
(PID.TID 0000.0001) %MON dynstat_eta_max              =   3.7233443218325E-01
(PID.TID 0000.0001) %MON dynstat_eta_min              =  -1.1659243688340E-01
(PID.TID 0000.0001) %MON dynstat_eta_mean             =   9.0632536116494E-06
(PID.TID 0000.0001) %MON dynstat_eta_sd               =   1.4256826535212E-01
(PID.TID 0000.0001) %MON dynstat_eta_del2             =   3.6368920643028E-05
(PID.TID 0000.0001) %MON dynstat_uvel_max             =   1.7451891091793E-01
(PID.TID 0000.0001) %MON dynstat_uvel_min             =  -1.3952048035560E-01
(PID.TID 0000.0001) %MON dynstat_uvel_mean            =   1.3258798063309E-08
(PID.TID 0000.0001) %MON dynstat_uvel_sd              =   5.8095814679731E-02
(PID.TID 0000.0001) %MON dynstat_uvel_del2            =   7.6415982541270E-05
(PID.TID 0000.0001) %MON dynstat_vvel_max             =   1.2191826011672E-01
(PID.TID 0000.0001) %MON dynstat_vvel_min             =  -1.4929982003808E-01
(PID.TID 0000.0001) %MON dynstat_vvel_mean            =   8.1639432108161E-08
(PID.TID 0000.0001) %MON dynstat_vvel_sd              =   5.3402888840733E-02
(PID.TID 0000.0001) %MON dynstat_vvel_del2            =   3.7234921967857E-05
(PID.TID 0000.0001) %MON dynstat_wvel_max             =   1.2566138000257E-08
(PID.TID 0000.0001) %MON dynstat_wvel_min             =  -4.3623179022688E-09
(PID.TID 0000.0001) %MON dynstat_wvel_mean            =  -5.2190375754435E-21
(PID.TID 0000.0001) %MON dynstat_wvel_sd              =   4.2197416471187E-09
(PID.TID 0000.0001) %MON dynstat_wvel_del2            =   1.2411414069100E-12
(PID.TID 0000.0001) %MON dynstat_theta_max            =   2.0000000000000E+01
(PID.TID 0000.0001) %MON dynstat_theta_min            =   2.0000000000000E+01
(PID.TID 0000.0001) %MON dynstat_theta_mean           =   2.0000000000000E+01
(PID.TID 0000.0001) %MON dynstat_theta_sd             =   3.8014036363165E-13
(PID.TID 0000.0001) %MON dynstat_theta_del2           =   0.0000000000000E+00
(PID.TID 0000.0001) %MON dynstat_salt_max             =   3.0000000000000E+01
(PID.TID 0000.0001) %MON dynstat_salt_min             =   3.0000000000000E+01
(PID.TID 0000.0001) %MON dynstat_salt_mean            =   2.9999999999999E+01
(PID.TID 0000.0001) %MON dynstat_salt_sd              =   5.5777604757167E-13
(PID.TID 0000.0001) %MON dynstat_salt_del2            =   0.0000000000000E+00
(PID.TID 0000.0001) %MON trAdv_CFL_u_max              =   1.0470041282349E-02
(PID.TID 0000.0001) %MON trAdv_CFL_v_max              =   8.9460189765239E-03
(PID.TID 0000.0001) %MON trAdv_CFL_w_max              =   3.3049909425013E-09
(PID.TID 0000.0001) %MON advcfl_uvel_max              =   1.0471134655076E-02
(PID.TID 0000.0001) %MON advcfl_vvel_max              =   8.9579892022848E-03
(PID.TID 0000.0001) %MON advcfl_wvel_max              =   6.0317462401232E-09
(PID.TID 0000.0001) %MON advcfl_W_hf_max              =   0.0000000000000E+00
(PID.TID 0000.0001) %MON pe_b_mean                    =   2.0838623409712E-05
(PID.TID 0000.0001) %MON ke_max                       =   1.5260493894433E-02
(PID.TID 0000.0001) %MON ke_mean                      =   3.0562432253742E-03
(PID.TID 0000.0001) %MON ke_vol                       =   6.8893493896486E+15
(PID.TID 0000.0001) %MON vort_r_min                   =  -1.0996051911863E-06
(PID.TID 0000.0001) %MON vort_r_max                   =   3.7367038995148E-06
(PID.TID 0000.0001) %MON vort_a_mean                  =   1.0600000000000E-04
(PID.TID 0000.0001) %MON vort_a_sd                    =   3.5789983150851E-06
(PID.TID 0000.0001) %MON vort_p_mean                  =   1.1652272308690E-04
(PID.TID 0000.0001) %MON vort_p_sd                    =   4.1792821504899E-05
(PID.TID 0000.0001) %MON surfExpan_theta_mean         =  -1.0437714889930E-19
(PID.TID 0000.0001) %MON surfExpan_salt_mean          =  -1.5656319697478E-19
(PID.TID 0000.0001) // =======================================================
(PID.TID 0000.0001) // End MONITOR dynamic field statistics
(PID.TID 0000.0001) // =======================================================
 cg2d: Sum(rhs),rhsMax =  -7.96930213298573E-03  2.27570742673050E-01
 cg2d: Sum(rhs),rhsMax =  -7.96969049890929E-03  2.27575017746147E-01
 cg2d: Sum(rhs),rhsMax =  -7.97007783624661E-03  2.27579290048450E-01
 cg2d: Sum(rhs),rhsMax =  -7.97046415668304E-03  2.27583559580102E-01
 cg2d: Sum(rhs),rhsMax =  -7.97084947062450E-03  2.27587826341258E-01
 cg2d: Sum(rhs),rhsMax =  -7.97123379028378E-03  2.27592090332066E-01
 cg2d: Sum(rhs),rhsMax =  -7.97161712622735E-03  2.27596351552703E-01
 cg2d: Sum(rhs),rhsMax =  -7.97199949016176E-03  2.27600610003333E-01
 cg2d: Sum(rhs),rhsMax =  -7.97238089328004E-03  2.27604865684144E-01
 cg2d: Sum(rhs),rhsMax =  -7.97276134723594E-03  2.27609118595330E-01
 cg2d: Sum(rhs),rhsMax =  -7.97314086345958E-03  2.27613368737077E-01
 cg2d: Sum(rhs),rhsMax =  -7.97351945372213E-03  2.27617616109605E-01
 cg2d: Sum(rhs),rhsMax =  -7.97389713050663E-03  2.27621860713126E-01
 cg2d: Sum(rhs),rhsMax =  -7.97427390506563E-03  2.27626102547857E-01
 cg2d: Sum(rhs),rhsMax =  -7.97464978933518E-03  2.27630341614039E-01
 cg2d: Sum(rhs),rhsMax =  -7.97502479563652E-03  2.27634577911909E-01
 cg2d: Sum(rhs),rhsMax =  -7.97539893588963E-03  2.27638811441716E-01
 cg2d: Sum(rhs),rhsMax =  -7.97577222275943E-03  2.27643042203709E-01
 cg2d: Sum(rhs),rhsMax =  -7.97614466820168E-03  2.27647270198165E-01
 cg2d: Sum(rhs),rhsMax =  -7.97651628506318E-03  2.27651495425354E-01
 cg2d: Sum(rhs),rhsMax =  -7.97688708501039E-03  2.27655717885553E-01
 cg2d: Sum(rhs),rhsMax =  -7.97725708143097E-03  2.27659937579053E-01
 cg2d: Sum(rhs),rhsMax =  -7.97762628637428E-03  2.27664154506154E-01
 cg2d: Sum(rhs),rhsMax =  -7.97799471249683E-03  2.27668368667162E-01
 cg2d: Sum(rhs),rhsMax =  -7.97836237280761E-03  2.27672580062391E-01
 cg2d: Sum(rhs),rhsMax =  -7.97872927991046E-03  2.27676788692162E-01
 cg2d: Sum(rhs),rhsMax =  -7.97909544690591E-03  2.27680994556813E-01
 cg2d: Sum(rhs),rhsMax =  -7.97946088645924E-03  2.27685197656669E-01
 cg2d: Sum(rhs),rhsMax =  -7.97982561104795E-03  2.27689397992092E-01
 cg2d: Sum(rhs),rhsMax =  -7.98018963456788E-03  2.27693595563428E-01
 cg2d: Sum(rhs),rhsMax =  -7.98055296987510E-03  2.27697790371055E-01
 cg2d: Sum(rhs),rhsMax =  -7.98091562995294E-03  2.27701982415323E-01
 cg2d: Sum(rhs),rhsMax =  -7.98127762798137E-03  2.27706171696627E-01
 cg2d: Sum(rhs),rhsMax =  -7.98163897767302E-03  2.27710358215358E-01
 cg2d: Sum(rhs),rhsMax =  -7.98199969147924E-03  2.27714541971906E-01
 cg2d: Sum(rhs),rhsMax =  -7.98235978288690E-03  2.27718722966677E-01
 cg2d: Sum(rhs),rhsMax =  -7.98271926622205E-03  2.27722901200087E-01
 cg2d: Sum(rhs),rhsMax =  -7.98307815366071E-03  2.27727076672559E-01
 cg2d: Sum(rhs),rhsMax =  -7.98343645874688E-03  2.27731249384512E-01
 cg2d: Sum(rhs),rhsMax =  -7.98379419626508E-03  2.27735419336397E-01
 cg2d: Sum(rhs),rhsMax =  -7.98415137836102E-03  2.27739586528655E-01
 cg2d: Sum(rhs),rhsMax =  -7.98450801894323E-03  2.27743750961739E-01
 cg2d: Sum(rhs),rhsMax =  -7.98486413225795E-03  2.27747912636116E-01
 cg2d: Sum(rhs),rhsMax =  -7.98521973128924E-03  2.27752071552253E-01
 cg2d: Sum(rhs),rhsMax =  -7.98557482935466E-03  2.27756227710630E-01
 cg2d: Sum(rhs),rhsMax =  -7.98592944052660E-03  2.27760381111732E-01
 cg2d: Sum(rhs),rhsMax =  -7.98628357865919E-03  2.27764531756061E-01
 cg2d: Sum(rhs),rhsMax =  -7.98663725711079E-03  2.27768679644114E-01
 cg2d: Sum(rhs),rhsMax =  -7.98699048961868E-03  2.27772824776412E-01
 cg2d: Sum(rhs),rhsMax =  -7.98734329003540E-03  2.27776967153462E-01
 cg2d: Sum(rhs),rhsMax =  -7.98769567194372E-03  2.27781106775803E-01
 cg2d: Sum(rhs),rhsMax =  -7.98804764918058E-03  2.27785243643968E-01
 cg2d: Sum(rhs),rhsMax =  -7.98839923558462E-03  2.27789377758500E-01
 cg2d: Sum(rhs),rhsMax =  -7.98875044503769E-03  2.27793509119952E-01
 cg2d: Sum(rhs),rhsMax =  -7.98910129123840E-03  2.27797637728889E-01
 cg2d: Sum(rhs),rhsMax =  -7.98945178757821E-03  2.27801763585879E-01
 cg2d: Sum(rhs),rhsMax =  -7.98980194749626E-03  2.27805886691499E-01
 cg2d: Sum(rhs),rhsMax =  -7.99015178629317E-03  2.27810007046331E-01
 cg2d: Sum(rhs),rhsMax =  -7.99050131651061E-03  2.27814124650976E-01
 cg2d: Sum(rhs),rhsMax =  -7.99085055175140E-03  2.27818239506026E-01
 cg2d: Sum(rhs),rhsMax =  -7.99119950627589E-03  2.27822351612100E-01
 cg2d: Sum(rhs),rhsMax =  -7.99154819390399E-03  2.27826460969820E-01
 cg2d: Sum(rhs),rhsMax =  -7.99189662758890E-03  2.27830567579800E-01
 cg2d: Sum(rhs),rhsMax =  -7.99224482251974E-03  2.27834671442686E-01
 cg2d: Sum(rhs),rhsMax =  -7.99259279070674E-03  2.27838772559110E-01
 cg2d: Sum(rhs),rhsMax =  -7.99294054695282E-03  2.27842870929734E-01
 cg2d: Sum(rhs),rhsMax =  -7.99328810447072E-03  2.27846966555212E-01
 cg2d: Sum(rhs),rhsMax =  -7.99363547682140E-03  2.27851059436206E-01
 cg2d: Sum(rhs),rhsMax =  -7.99398267805789E-03  2.27855149573404E-01
 cg2d: Sum(rhs),rhsMax =  -7.99432972139271E-03  2.27859236967485E-01
 cg2d: Sum(rhs),rhsMax =  -7.99467662024012E-03  2.27863321619132E-01
 cg2d: Sum(rhs),rhsMax =  -7.99502338859953E-03  2.27867403529056E-01
(PID.TID 0000.0001)      cg2d_init_res =   3.21421561142451E-04
(PID.TID 0000.0001)      cg2d_iters(min,last) =      -1      68
(PID.TID 0000.0001)      cg2d_last_res =   9.88480387861409E-08
(PID.TID 0000.0001) // =======================================================
(PID.TID 0000.0001) // Begin MONITOR dynamic field statistics
(PID.TID 0000.0001) // =======================================================
(PID.TID 0000.0001) %MON time_tsnumber                =                 18288
(PID.TID 0000.0001) %MON time_secondsf                =   2.1945600000000E+07
(PID.TID 0000.0001) %MON dynstat_eta_max              =   3.7340184058980E-01
(PID.TID 0000.0001) %MON dynstat_eta_min              =  -1.1682507092535E-01
(PID.TID 0000.0001) %MON dynstat_eta_mean             =   9.1049163562231E-06
(PID.TID 0000.0001) %MON dynstat_eta_sd               =   1.4291833924994E-01
(PID.TID 0000.0001) %MON dynstat_eta_del2             =   3.6448646022725E-05
(PID.TID 0000.0001) %MON dynstat_uvel_max             =   1.7483382648178E-01
(PID.TID 0000.0001) %MON dynstat_uvel_min             =  -1.3987505657721E-01
(PID.TID 0000.0001) %MON dynstat_uvel_mean            =   9.7609937871089E-09
(PID.TID 0000.0001) %MON dynstat_uvel_sd              =   5.8226744857247E-02
(PID.TID 0000.0001) %MON dynstat_uvel_del2            =   7.6476740817596E-05
(PID.TID 0000.0001) %MON dynstat_vvel_max             =   1.2229518892302E-01
(PID.TID 0000.0001) %MON dynstat_vvel_min             =  -1.4966785298322E-01
(PID.TID 0000.0001) %MON dynstat_vvel_mean            =   7.9013120872706E-08
(PID.TID 0000.0001) %MON dynstat_vvel_sd              =   5.3546145097179E-02
(PID.TID 0000.0001) %MON dynstat_vvel_del2            =   3.7228480916697E-05
(PID.TID 0000.0001) %MON dynstat_wvel_max             =   1.2530085896724E-08
(PID.TID 0000.0001) %MON dynstat_wvel_min             =  -4.1354403836885E-09
(PID.TID 0000.0001) %MON dynstat_wvel_mean            =  -1.5466197409195E-20
(PID.TID 0000.0001) %MON dynstat_wvel_sd              =   4.2089707766079E-09
(PID.TID 0000.0001) %MON dynstat_wvel_del2            =   1.2347454198459E-12
(PID.TID 0000.0001) %MON dynstat_theta_max            =   2.0000000000000E+01
(PID.TID 0000.0001) %MON dynstat_theta_min            =   2.0000000000000E+01
(PID.TID 0000.0001) %MON dynstat_theta_mean           =   2.0000000000000E+01
(PID.TID 0000.0001) %MON dynstat_theta_sd             =   3.8014036363165E-13
(PID.TID 0000.0001) %MON dynstat_theta_del2           =   0.0000000000000E+00
(PID.TID 0000.0001) %MON dynstat_salt_max             =   3.0000000000000E+01
(PID.TID 0000.0001) %MON dynstat_salt_min             =   3.0000000000000E+01
(PID.TID 0000.0001) %MON dynstat_salt_mean            =   2.9999999999999E+01
(PID.TID 0000.0001) %MON dynstat_salt_sd              =   5.5777604757167E-13
(PID.TID 0000.0001) %MON dynstat_salt_del2            =   0.0000000000000E+00
(PID.TID 0000.0001) %MON trAdv_CFL_u_max              =   1.0488941708421E-02
(PID.TID 0000.0001) %MON trAdv_CFL_v_max              =   8.9680705589344E-03
(PID.TID 0000.0001) %MON trAdv_CFL_w_max              =   3.2950538159143E-09
(PID.TID 0000.0001) %MON advcfl_uvel_max              =   1.0490029588907E-02
(PID.TID 0000.0001) %MON advcfl_vvel_max              =   8.9800711789935E-03
(PID.TID 0000.0001) %MON advcfl_wvel_max              =   6.0144412304275E-09
(PID.TID 0000.0001) %MON advcfl_W_hf_max              =   0.0000000000000E+00
(PID.TID 0000.0001) %MON pe_b_mean                    =   2.0941086809602E-05
(PID.TID 0000.0001) %MON ke_max                       =   1.5316299094776E-02
(PID.TID 0000.0001) %MON ke_mean                      =   3.0712379535571E-03
(PID.TID 0000.0001) %MON ke_vol                       =   6.8893493896486E+15
(PID.TID 0000.0001) %MON vort_r_min                   =  -1.1024557276915E-06
(PID.TID 0000.0001) %MON vort_r_max                   =   3.7428433018424E-06
(PID.TID 0000.0001) %MON vort_a_mean                  =   1.0600000000000E-04
(PID.TID 0000.0001) %MON vort_a_sd                    =   3.5792164432522E-06
(PID.TID 0000.0001) %MON vort_p_mean                  =   1.1652272308690E-04
(PID.TID 0000.0001) %MON vort_p_sd                    =   4.1792826954049E-05
(PID.TID 0000.0001) %MON surfExpan_theta_mean         =  -3.0931156895046E-19
(PID.TID 0000.0001) %MON surfExpan_salt_mean          =  -4.6396609023860E-19
(PID.TID 0000.0001) // =======================================================
(PID.TID 0000.0001) // End MONITOR dynamic field statistics
(PID.TID 0000.0001) // =======================================================
 cg2d: Sum(rhs),rhsMax =  -7.99537003963331E-03  2.27871482697964E-01
 cg2d: Sum(rhs),rhsMax =  -7.99571658681715E-03  2.27875559126568E-01
 cg2d: Sum(rhs),rhsMax =  -7.99606304370928E-03  2.27879632815597E-01
 cg2d: Sum(rhs),rhsMax =  -7.99640942329875E-03  2.27883703765778E-01
 cg2d: Sum(rhs),rhsMax =  -7.99675573944533E-03  2.27887771977853E-01
 cg2d: Sum(rhs),rhsMax =  -7.99710200520837E-03  2.27891837452573E-01
 cg2d: Sum(rhs),rhsMax =  -7.99744823337571E-03  2.27895900190699E-01
 cg2d: Sum(rhs),rhsMax =  -7.99779443782028E-03  2.27899960192990E-01
 cg2d: Sum(rhs),rhsMax =  -7.99814063159983E-03  2.27904017460216E-01
 cg2d: Sum(rhs),rhsMax =  -7.99848682757398E-03  2.27908071993170E-01
 cg2d: Sum(rhs),rhsMax =  -7.99883303919815E-03  2.27912123792639E-01
 cg2d: Sum(rhs),rhsMax =  -7.99917927934729E-03  2.27916172859408E-01
 cg2d: Sum(rhs),rhsMax =  -7.99952556083060E-03  2.27920219194296E-01
 cg2d: Sum(rhs),rhsMax =  -7.99987189620896E-03  2.27924262798113E-01
 cg2d: Sum(rhs),rhsMax =  -8.00021829874718E-03  2.27928303671679E-01
 cg2d: Sum(rhs),rhsMax =  -8.00056478171552E-03  2.27932341815825E-01
 cg2d: Sum(rhs),rhsMax =  -8.00091135657196E-03  2.27936377231392E-01
 cg2d: Sum(rhs),rhsMax =  -8.00125803706562E-03  2.27940409919220E-01
 cg2d: Sum(rhs),rhsMax =  -8.00160483562082E-03  2.27944439880175E-01
 cg2d: Sum(rhs),rhsMax =  -8.00195176439038E-03  2.27948467115111E-01
 cg2d: Sum(rhs),rhsMax =  -8.00229883592052E-03  2.27952491624894E-01
 cg2d: Sum(rhs),rhsMax =  -8.00264606258682E-03  2.27956513410414E-01
 cg2d: Sum(rhs),rhsMax =  -8.00299345705491E-03  2.27960532472548E-01
 cg2d: Sum(rhs),rhsMax =  -8.00334103117607E-03  2.27964548812196E-01
 cg2d: Sum(rhs),rhsMax =  -8.00368879730565E-03  2.27968562430263E-01
 cg2d: Sum(rhs),rhsMax =  -8.00403676739299E-03  2.27972573327654E-01
 cg2d: Sum(rhs),rhsMax =  -8.00438495404238E-03  2.27976581505293E-01
 cg2d: Sum(rhs),rhsMax =  -8.00473336828310E-03  2.27980586964104E-01
 cg2d: Sum(rhs),rhsMax =  -8.00508202268825E-03  2.27984589705021E-01
 cg2d: Sum(rhs),rhsMax =  -8.00543092891452E-03  2.27988589728993E-01
 cg2d: Sum(rhs),rhsMax =  -8.00578009851671E-03  2.27992587036967E-01
 cg2d: Sum(rhs),rhsMax =  -8.00612954349268E-03  2.27996581629903E-01
 cg2d: Sum(rhs),rhsMax =  -8.00647927485785E-03  2.28000573508772E-01
 cg2d: Sum(rhs),rhsMax =  -8.00682930412438E-03  2.28004562674541E-01
 cg2d: Sum(rhs),rhsMax =  -8.00717964252572E-03  2.28008549128202E-01
 cg2d: Sum(rhs),rhsMax =  -8.00753030197581E-03  2.28012532870745E-01
 cg2d: Sum(rhs),rhsMax =  -8.00788129341589E-03  2.28016513903168E-01
 cg2d: Sum(rhs),rhsMax =  -8.00823262813132E-03  2.28020492226474E-01
 cg2d: Sum(rhs),rhsMax =  -8.00858431708694E-03  2.28024467841687E-01
 cg2d: Sum(rhs),rhsMax =  -8.00893637102977E-03  2.28028440749829E-01
 cg2d: Sum(rhs),rhsMax =  -8.00928880067248E-03  2.28032410951924E-01
 cg2d: Sum(rhs),rhsMax =  -8.00964161647852E-03  2.28036378449018E-01
 cg2d: Sum(rhs),rhsMax =  -8.00999483011011E-03  2.28040343242159E-01
 cg2d: Sum(rhs),rhsMax =  -8.01034845166211E-03  2.28044305332403E-01
 cg2d: Sum(rhs),rhsMax =  -8.01070249118169E-03  2.28048264720811E-01
 cg2d: Sum(rhs),rhsMax =  -8.01105695963878E-03  2.28052221408456E-01
 cg2d: Sum(rhs),rhsMax =  -8.01141186712762E-03  2.28056175396422E-01
 cg2d: Sum(rhs),rhsMax =  -8.01176722364430E-03  2.28060126685789E-01
 cg2d: Sum(rhs),rhsMax =  -8.01212303889809E-03  2.28064075277658E-01
 cg2d: Sum(rhs),rhsMax =  -8.01247932398672E-03  2.28068021173135E-01
 cg2d: Sum(rhs),rhsMax =  -8.01283608783464E-03  2.28071964373325E-01
 cg2d: Sum(rhs),rhsMax =  -8.01319334045156E-03  2.28075904879348E-01
 cg2d: Sum(rhs),rhsMax =  -8.01355109142103E-03  2.28079842692339E-01
 cg2d: Sum(rhs),rhsMax =  -8.01390935064610E-03  2.28083777813421E-01
 cg2d: Sum(rhs),rhsMax =  -8.01426812724904E-03  2.28087710243751E-01
 cg2d: Sum(rhs),rhsMax =  -8.01462743077049E-03  2.28091639984477E-01
 cg2d: Sum(rhs),rhsMax =  -8.01498727052583E-03  2.28095567036754E-01
 cg2d: Sum(rhs),rhsMax =  -8.01534765538914E-03  2.28099491401753E-01
 cg2d: Sum(rhs),rhsMax =  -8.01570859431234E-03  2.28103413080650E-01
 cg2d: Sum(rhs),rhsMax =  -8.01607009669594E-03  2.28107332074619E-01
 cg2d: Sum(rhs),rhsMax =  -8.01643217106685E-03  2.28111248384867E-01
 cg2d: Sum(rhs),rhsMax =  -8.01679482638997E-03  2.28115162012583E-01
 cg2d: Sum(rhs),rhsMax =  -8.01715807134239E-03  2.28119072958977E-01
 cg2d: Sum(rhs),rhsMax =  -8.01752191430522E-03  2.28122981225261E-01
 cg2d: Sum(rhs),rhsMax =  -8.01788636322601E-03  2.28126886812663E-01
 cg2d: Sum(rhs),rhsMax =  -8.01825142739146E-03  2.28130789722414E-01
 cg2d: Sum(rhs),rhsMax =  -8.01861711433779E-03  2.28134689955749E-01
 cg2d: Sum(rhs),rhsMax =  -8.01898343219559E-03  2.28138587513914E-01
 cg2d: Sum(rhs),rhsMax =  -8.01935038889695E-03  2.28142482398169E-01
 cg2d: Sum(rhs),rhsMax =  -8.01971799272904E-03  2.28146374609771E-01
 cg2d: Sum(rhs),rhsMax =  -8.02008625097654E-03  2.28150264149994E-01
 cg2d: Sum(rhs),rhsMax =  -8.02045517158568E-03  2.28154151020115E-01
(PID.TID 0000.0001)      cg2d_init_res =   3.18526664392252E-04
(PID.TID 0000.0001)      cg2d_iters(min,last) =      -1      68
(PID.TID 0000.0001)      cg2d_last_res =   9.76715962318469E-08
(PID.TID 0000.0001) // =======================================================
(PID.TID 0000.0001) // Begin MONITOR dynamic field statistics
(PID.TID 0000.0001) // =======================================================
(PID.TID 0000.0001) %MON time_tsnumber                =                 18360
(PID.TID 0000.0001) %MON time_secondsf                =   2.2032000000000E+07
(PID.TID 0000.0001) %MON dynstat_eta_max              =   3.7446812015767E-01
(PID.TID 0000.0001) %MON dynstat_eta_min              =  -1.1705890379366E-01
(PID.TID 0000.0001) %MON dynstat_eta_mean             =   9.1453895710175E-06
(PID.TID 0000.0001) %MON dynstat_eta_sd               =   1.4326794668196E-01
(PID.TID 0000.0001) %MON dynstat_eta_del2             =   3.6527921908903E-05
(PID.TID 0000.0001) %MON dynstat_uvel_max             =   1.7514002923822E-01
(PID.TID 0000.0001) %MON dynstat_uvel_min             =  -1.4022925029910E-01
(PID.TID 0000.0001) %MON dynstat_uvel_mean            =   6.0340720171675E-09
(PID.TID 0000.0001) %MON dynstat_uvel_sd              =   5.8357292516489E-02
(PID.TID 0000.0001) %MON dynstat_uvel_del2            =   7.6535132033282E-05
(PID.TID 0000.0001) %MON dynstat_vvel_max             =   1.2268047436252E-01
(PID.TID 0000.0001) %MON dynstat_vvel_min             =  -1.5003778427925E-01
(PID.TID 0000.0001) %MON dynstat_vvel_mean            =   7.7107555185782E-08
(PID.TID 0000.0001) %MON dynstat_vvel_sd              =   5.3689127920026E-02
(PID.TID 0000.0001) %MON dynstat_vvel_del2            =   3.7221538022413E-05
(PID.TID 0000.0001) %MON dynstat_wvel_max             =   1.2498939890065E-08
(PID.TID 0000.0001) %MON dynstat_wvel_min             =  -3.9285931258928E-09
(PID.TID 0000.0001) %MON dynstat_wvel_mean            =  -3.6203972639568E-21
(PID.TID 0000.0001) %MON dynstat_wvel_sd              =   4.1995511224876E-09
(PID.TID 0000.0001) %MON dynstat_wvel_del2            =   1.2271375686146E-12
(PID.TID 0000.0001) %MON dynstat_theta_max            =   2.0000000000000E+01
(PID.TID 0000.0001) %MON dynstat_theta_min            =   2.0000000000000E+01
(PID.TID 0000.0001) %MON dynstat_theta_mean           =   2.0000000000000E+01
(PID.TID 0000.0001) %MON dynstat_theta_sd             =   3.8014036363165E-13
(PID.TID 0000.0001) %MON dynstat_theta_del2           =   0.0000000000000E+00
(PID.TID 0000.0001) %MON dynstat_salt_max             =   3.0000000000000E+01
(PID.TID 0000.0001) %MON dynstat_salt_min             =   3.0000000000000E+01
(PID.TID 0000.0001) %MON dynstat_salt_mean            =   2.9999999999999E+01
(PID.TID 0000.0001) %MON dynstat_salt_sd              =   5.5777604757167E-13
(PID.TID 0000.0001) %MON dynstat_salt_del2            =   0.0000000000000E+00
(PID.TID 0000.0001) %MON trAdv_CFL_u_max              =   1.0507319931250E-02
(PID.TID 0000.0001) %MON trAdv_CFL_v_max              =   8.9902360080649E-03
(PID.TID 0000.0001) %MON trAdv_CFL_w_max              =   3.2868696823325E-09
(PID.TID 0000.0001) %MON advcfl_uvel_max              =   1.0508401754293E-02
(PID.TID 0000.0001) %MON advcfl_vvel_max              =   9.0022670567551E-03
(PID.TID 0000.0001) %MON advcfl_wvel_max              =   5.9994911472313E-09
(PID.TID 0000.0001) %MON advcfl_W_hf_max              =   0.0000000000000E+00
(PID.TID 0000.0001) %MON pe_b_mean                    =   2.1043664465788E-05
(PID.TID 0000.0001) %MON ke_max                       =   1.5370721798448E-02
(PID.TID 0000.0001) %MON ke_mean                      =   3.0862333313836E-03
(PID.TID 0000.0001) %MON ke_vol                       =   6.8893493896486E+15
(PID.TID 0000.0001) %MON vort_r_min                   =  -1.1054241538507E-06
(PID.TID 0000.0001) %MON vort_r_max                   =   3.7487950891813E-06
(PID.TID 0000.0001) %MON vort_a_mean                  =   1.0600000000000E-04
(PID.TID 0000.0001) %MON vort_a_sd                    =   3.5794327883616E-06
(PID.TID 0000.0001) %MON vort_p_mean                  =   1.1652272308690E-04
(PID.TID 0000.0001) %MON vort_p_sd                    =   4.1792830706166E-05
(PID.TID 0000.0001) %MON surfExpan_theta_mean         =  -7.2368935535552E-20
(PID.TID 0000.0001) %MON surfExpan_salt_mean          =  -1.0854313990826E-19
(PID.TID 0000.0001) // =======================================================
(PID.TID 0000.0001) // End MONITOR dynamic field statistics
(PID.TID 0000.0001) // =======================================================
 cg2d: Sum(rhs),rhsMax =  -8.02082476179966E-03  2.28158035221421E-01
 cg2d: Sum(rhs),rhsMax =  -8.02119502927355E-03  2.28161916755209E-01
 cg2d: Sum(rhs),rhsMax =  -8.02156598125626E-03  2.28165795622774E-01
 cg2d: Sum(rhs),rhsMax =  -8.02193762511084E-03  2.28169671825430E-01
 cg2d: Sum(rhs),rhsMax =  -8.02230996757294E-03  2.28173545364496E-01
 cg2d: Sum(rhs),rhsMax =  -8.02268301615603E-03  2.28177416241291E-01
 cg2d: Sum(rhs),rhsMax =  -8.02305677710360E-03  2.28181284457160E-01
 cg2d: Sum(rhs),rhsMax =  -8.02343125808117E-03  2.28185150013435E-01
 cg2d: Sum(rhs),rhsMax =  -8.02380646500819E-03  2.28189012911467E-01
 cg2d: Sum(rhs),rhsMax =  -8.02418240499814E-03  2.28192873152616E-01
 cg2d: Sum(rhs),rhsMax =  -8.02455908401359E-03  2.28196730738249E-01
 cg2d: Sum(rhs),rhsMax =  -8.02493650894251E-03  2.28200585669725E-01
 cg2d: Sum(rhs),rhsMax =  -8.02531468510036E-03  2.28204437948442E-01
 cg2d: Sum(rhs),rhsMax =  -8.02569361957151E-03  2.28208287575778E-01
 cg2d: Sum(rhs),rhsMax =  -8.02607331753365E-03  2.28212134553137E-01
 cg2d: Sum(rhs),rhsMax =  -8.02645378552938E-03  2.28215978881908E-01
 cg2d: Sum(rhs),rhsMax =  -8.02683502938424E-03  2.28219820563520E-01
 cg2d: Sum(rhs),rhsMax =  -8.02721705447381E-03  2.28223659599382E-01
 cg2d: Sum(rhs),rhsMax =  -8.02759986657494E-03  2.28227495990928E-01
 cg2d: Sum(rhs),rhsMax =  -8.02798347118485E-03  2.28231329739586E-01
 cg2d: Sum(rhs),rhsMax =  -8.02836787351913E-03  2.28235160846806E-01
 cg2d: Sum(rhs),rhsMax =  -8.02875307887121E-03  2.28238989314037E-01
 cg2d: Sum(rhs),rhsMax =  -8.02913909234884E-03  2.28242815142737E-01
 cg2d: Sum(rhs),rhsMax =  -8.02952591906751E-03  2.28246638334369E-01
 cg2d: Sum(rhs),rhsMax =  -8.02991356399636E-03  2.28250458890408E-01
 cg2d: Sum(rhs),rhsMax =  -8.03030203177097E-03  2.28254276812342E-01
 cg2d: Sum(rhs),rhsMax =  -8.03069132725313E-03  2.28258092101656E-01
 cg2d: Sum(rhs),rhsMax =  -8.03108145550977E-03  2.28261904759843E-01
 cg2d: Sum(rhs),rhsMax =  -8.03147242063336E-03  2.28265714788418E-01
 cg2d: Sum(rhs),rhsMax =  -8.03186422724304E-03  2.28269522188891E-01
 cg2d: Sum(rhs),rhsMax =  -8.03225687936477E-03  2.28273326962778E-01
 cg2d: Sum(rhs),rhsMax =  -8.03265038136956E-03  2.28277129111614E-01
 cg2d: Sum(rhs),rhsMax =  -8.03304473760004E-03  2.28280928636922E-01
 cg2d: Sum(rhs),rhsMax =  -8.03343995143028E-03  2.28284725540259E-01
 cg2d: Sum(rhs),rhsMax =  -8.03383602738387E-03  2.28288519823181E-01
 cg2d: Sum(rhs),rhsMax =  -8.03423296898230E-03  2.28292311487231E-01
 cg2d: Sum(rhs),rhsMax =  -8.03463078021245E-03  2.28296100533984E-01
 cg2d: Sum(rhs),rhsMax =  -8.03502946465398E-03  2.28299886965018E-01
 cg2d: Sum(rhs),rhsMax =  -8.03542902536932E-03  2.28303670781907E-01
 cg2d: Sum(rhs),rhsMax =  -8.03582946612542E-03  2.28307451986253E-01
 cg2d: Sum(rhs),rhsMax =  -8.03623078980494E-03  2.28311230579644E-01
 cg2d: Sum(rhs),rhsMax =  -8.03663300007621E-03  2.28315006563686E-01
 cg2d: Sum(rhs),rhsMax =  -8.03703610032626E-03  2.28318779939996E-01
 cg2d: Sum(rhs),rhsMax =  -8.03744009273429E-03  2.28322550710190E-01
 cg2d: Sum(rhs),rhsMax =  -8.03784498113029E-03  2.28326318875904E-01
 cg2d: Sum(rhs),rhsMax =  -8.03825076741216E-03  2.28330084438767E-01
 cg2d: Sum(rhs),rhsMax =  -8.03865745541200E-03  2.28333847400426E-01
 cg2d: Sum(rhs),rhsMax =  -8.03906504697066E-03  2.28337607762535E-01
 cg2d: Sum(rhs),rhsMax =  -8.03947354476873E-03  2.28341365526749E-01
 cg2d: Sum(rhs),rhsMax =  -8.03988295154199E-03  2.28345120694731E-01
 cg2d: Sum(rhs),rhsMax =  -8.04029326888020E-03  2.28348873268162E-01
 cg2d: Sum(rhs),rhsMax =  -8.04070449985124E-03  2.28352623248724E-01
 cg2d: Sum(rhs),rhsMax =  -8.04111664632283E-03  2.28356370638102E-01
 cg2d: Sum(rhs),rhsMax =  -8.04152971023222E-03  2.28360115437995E-01
 cg2d: Sum(rhs),rhsMax =  -8.04194369419368E-03  2.28363857650111E-01
 cg2d: Sum(rhs),rhsMax =  -8.04235859950732E-03  2.28367597276157E-01
 cg2d: Sum(rhs),rhsMax =  -8.04277442839034E-03  2.28371334317856E-01
 cg2d: Sum(rhs),rhsMax =  -8.04319118205853E-03  2.28375068776939E-01
 cg2d: Sum(rhs),rhsMax =  -8.04360886271751E-03  2.28378800655128E-01
 cg2d: Sum(rhs),rhsMax =  -8.04402747161785E-03  2.28382529954185E-01
 cg2d: Sum(rhs),rhsMax =  -8.04444700991773E-03  2.28386256675846E-01
 cg2d: Sum(rhs),rhsMax =  -8.04486747963907E-03  2.28389980821868E-01
 cg2d: Sum(rhs),rhsMax =  -8.04528888167160E-03  2.28393702394029E-01
 cg2d: Sum(rhs),rhsMax =  -8.04571121783616E-03  2.28397421394092E-01
 cg2d: Sum(rhs),rhsMax =  -8.04613448804133E-03  2.28401137823838E-01
 cg2d: Sum(rhs),rhsMax =  -8.04655869451479E-03  2.28404851685055E-01
 cg2d: Sum(rhs),rhsMax =  -8.04698383732830E-03  2.28408562979541E-01
 cg2d: Sum(rhs),rhsMax =  -8.04740991842709E-03  2.28412271709100E-01
 cg2d: Sum(rhs),rhsMax =  -8.04783693779763E-03  2.28415977875541E-01
 cg2d: Sum(rhs),rhsMax =  -8.04826489600401E-03  2.28419681480682E-01
 cg2d: Sum(rhs),rhsMax =  -8.04869379458931E-03  2.28423382526350E-01
 cg2d: Sum(rhs),rhsMax =  -8.04912363335947E-03  2.28427081014372E-01
(PID.TID 0000.0001)      cg2d_init_res =   3.15568918547364E-04
(PID.TID 0000.0001)      cg2d_iters(min,last) =      -1      68
(PID.TID 0000.0001)      cg2d_last_res =   9.58577640216682E-08
(PID.TID 0000.0001) // =======================================================
(PID.TID 0000.0001) // Begin MONITOR dynamic field statistics
(PID.TID 0000.0001) // =======================================================
(PID.TID 0000.0001) %MON time_tsnumber                =                 18432
(PID.TID 0000.0001) %MON time_secondsf                =   2.2118400000000E+07
(PID.TID 0000.0001) %MON dynstat_eta_max              =   3.7553322946183E-01
(PID.TID 0000.0001) %MON dynstat_eta_min              =  -1.1729345144047E-01
(PID.TID 0000.0001) %MON dynstat_eta_mean             =   9.1891189036885E-06
(PID.TID 0000.0001) %MON dynstat_eta_sd               =   1.4361719505804E-01
(PID.TID 0000.0001) %MON dynstat_eta_del2             =   3.6606675522441E-05
(PID.TID 0000.0001) %MON dynstat_uvel_max             =   1.7543695855767E-01
(PID.TID 0000.0001) %MON dynstat_uvel_min             =  -1.4058453286318E-01
(PID.TID 0000.0001) %MON dynstat_uvel_mean            =   2.2836952578538E-09
(PID.TID 0000.0001) %MON dynstat_uvel_sd              =   5.8487829007986E-02
(PID.TID 0000.0001) %MON dynstat_uvel_del2            =   7.6591046270099E-05
(PID.TID 0000.0001) %MON dynstat_vvel_max             =   1.2307322804702E-01
(PID.TID 0000.0001) %MON dynstat_vvel_min             =  -1.5040949381727E-01
(PID.TID 0000.0001) %MON dynstat_vvel_mean            =   7.5916587708884E-08
(PID.TID 0000.0001) %MON dynstat_vvel_sd              =   5.3831473221463E-02
(PID.TID 0000.0001) %MON dynstat_vvel_del2            =   3.7214717233261E-05
(PID.TID 0000.0001) %MON dynstat_wvel_max             =   1.2466194979497E-08
(PID.TID 0000.0001) %MON dynstat_wvel_min             =  -3.6992423865013E-09
(PID.TID 0000.0001) %MON dynstat_wvel_mean            =  -9.0811911630024E-21
(PID.TID 0000.0001) %MON dynstat_wvel_sd              =   4.1912261851882E-09
(PID.TID 0000.0001) %MON dynstat_wvel_del2            =   1.2187954228984E-12
(PID.TID 0000.0001) %MON dynstat_theta_max            =   2.0000000000000E+01
(PID.TID 0000.0001) %MON dynstat_theta_min            =   2.0000000000000E+01
(PID.TID 0000.0001) %MON dynstat_theta_mean           =   2.0000000000000E+01
(PID.TID 0000.0001) %MON dynstat_theta_sd             =   3.8014036363165E-13
(PID.TID 0000.0001) %MON dynstat_theta_del2           =   0.0000000000000E+00
(PID.TID 0000.0001) %MON dynstat_salt_max             =   3.0000000000000E+01
(PID.TID 0000.0001) %MON dynstat_salt_min             =   3.0000000000000E+01
(PID.TID 0000.0001) %MON dynstat_salt_mean            =   2.9999999999999E+01
(PID.TID 0000.0001) %MON dynstat_salt_sd              =   5.5777604757167E-13
(PID.TID 0000.0001) %MON dynstat_salt_del2            =   0.0000000000000E+00
(PID.TID 0000.0001) %MON trAdv_CFL_u_max              =   1.0525142202675E-02
(PID.TID 0000.0001) %MON trAdv_CFL_v_max              =   9.0125080989310E-03
(PID.TID 0000.0001) %MON trAdv_CFL_w_max              =   3.2782646218126E-09
(PID.TID 0000.0001) %MON advcfl_uvel_max              =   1.0526217513460E-02
(PID.TID 0000.0001) %MON advcfl_vvel_max              =   9.0245696290363E-03
(PID.TID 0000.0001) %MON advcfl_wvel_max              =   5.9837735901587E-09
(PID.TID 0000.0001) %MON advcfl_W_hf_max              =   0.0000000000000E+00
(PID.TID 0000.0001) %MON pe_b_mean                    =   2.1146387005508E-05
(PID.TID 0000.0001) %MON ke_max                       =   1.5423648591905E-02
(PID.TID 0000.0001) %MON ke_mean                      =   3.1012311776506E-03
(PID.TID 0000.0001) %MON ke_vol                       =   6.8893493896486E+15
(PID.TID 0000.0001) %MON vort_r_min                   =  -1.1084344806647E-06
(PID.TID 0000.0001) %MON vort_r_max                   =   3.7545472045462E-06
(PID.TID 0000.0001) %MON vort_a_mean                  =   1.0600000000000E-04
(PID.TID 0000.0001) %MON vort_a_sd                    =   3.5796474458768E-06
(PID.TID 0000.0001) %MON vort_p_mean                  =   1.1652272308690E-04
(PID.TID 0000.0001) %MON vort_p_sd                    =   4.1792833213987E-05
(PID.TID 0000.0001) %MON surfExpan_theta_mean         =  -1.8164314496971E-19
(PID.TID 0000.0001) %MON surfExpan_salt_mean          =  -2.7246471745457E-19
(PID.TID 0000.0001) // =======================================================
(PID.TID 0000.0001) // End MONITOR dynamic field statistics
(PID.TID 0000.0001) // =======================================================
 cg2d: Sum(rhs),rhsMax =  -8.04955441337075E-03  2.28430776946596E-01
 cg2d: Sum(rhs),rhsMax =  -8.04998613435019E-03  2.28434470324866E-01
 cg2d: Sum(rhs),rhsMax =  -8.05041879711597E-03  2.28438161151040E-01
 cg2d: Sum(rhs),rhsMax =  -8.05085240211907E-03  2.28441849426984E-01
 cg2d: Sum(rhs),rhsMax =  -8.05128694870364E-03  2.28445535154558E-01
 cg2d: Sum(rhs),rhsMax =  -8.05172243753465E-03  2.28449218335654E-01
 cg2d: Sum(rhs),rhsMax =  -8.05215886909072E-03  2.28452898972141E-01
 cg2d: Sum(rhs),rhsMax =  -8.05259624309927E-03  2.28456577065925E-01
 cg2d: Sum(rhs),rhsMax =  -8.05303455882652E-03  2.28460252618903E-01
 cg2d: Sum(rhs),rhsMax =  -8.05347381700128E-03  2.28463925632979E-01
 cg2d: Sum(rhs),rhsMax =  -8.05391401679508E-03  2.28467596110071E-01
 cg2d: Sum(rhs),rhsMax =  -8.05435515814901E-03  2.28471264052107E-01
 cg2d: Sum(rhs),rhsMax =  -8.05479724041335E-03  2.28474929461013E-01
 cg2d: Sum(rhs),rhsMax =  -8.05524026348315E-03  2.28478592338717E-01
 cg2d: Sum(rhs),rhsMax =  -8.05568422670092E-03  2.28482252687179E-01
 cg2d: Sum(rhs),rhsMax =  -8.05612912985872E-03  2.28485910508339E-01
 cg2d: Sum(rhs),rhsMax =  -8.05657497191395E-03  2.28489565804166E-01
 cg2d: Sum(rhs),rhsMax =  -8.05702175172736E-03  2.28493218576625E-01
 cg2d: Sum(rhs),rhsMax =  -8.05746946916789E-03  2.28496868827681E-01
 cg2d: Sum(rhs),rhsMax =  -8.05791812311006E-03  2.28500516559331E-01
 cg2d: Sum(rhs),rhsMax =  -8.05836771350592E-03  2.28504161773549E-01
 cg2d: Sum(rhs),rhsMax =  -8.05881823863712E-03  2.28507804472342E-01
 cg2d: Sum(rhs),rhsMax =  -8.05926969740034E-03  2.28511444657712E-01
 cg2d: Sum(rhs),rhsMax =  -8.05972208856735E-03  2.28515082331669E-01
 cg2d: Sum(rhs),rhsMax =  -8.06017541118829E-03  2.28518717496233E-01
 cg2d: Sum(rhs),rhsMax =  -8.06062966449009E-03  2.28522350153424E-01
 cg2d: Sum(rhs),rhsMax =  -8.06108484661439E-03  2.28525980305282E-01
 cg2d: Sum(rhs),rhsMax =  -8.06154095626756E-03  2.28529607953848E-01
 cg2d: Sum(rhs),rhsMax =  -8.06199799249694E-03  2.28533233101162E-01
 cg2d: Sum(rhs),rhsMax =  -8.06245595387190E-03  2.28536855749285E-01
 cg2d: Sum(rhs),rhsMax =  -8.06291483865326E-03  2.28540475900281E-01
 cg2d: Sum(rhs),rhsMax =  -8.06337464546470E-03  2.28544093556213E-01
 cg2d: Sum(rhs),rhsMax =  -8.06383537236513E-03  2.28547708719163E-01
 cg2d: Sum(rhs),rhsMax =  -8.06429701790422E-03  2.28551321391219E-01
 cg2d: Sum(rhs),rhsMax =  -8.06475958042293E-03  2.28554931574461E-01
 cg2d: Sum(rhs),rhsMax =  -8.06522305841337E-03  2.28558539270997E-01
 cg2d: Sum(rhs),rhsMax =  -8.06568744981082E-03  2.28562144482933E-01
 cg2d: Sum(rhs),rhsMax =  -8.06615275266290E-03  2.28565747212374E-01
 cg2d: Sum(rhs),rhsMax =  -8.06661896497689E-03  2.28569347461456E-01
 cg2d: Sum(rhs),rhsMax =  -8.06708608525377E-03  2.28572945232290E-01
 cg2d: Sum(rhs),rhsMax =  -8.06755411123693E-03  2.28576540527019E-01
 cg2d: Sum(rhs),rhsMax =  -8.06802304063005E-03  2.28580133347784E-01
 cg2d: Sum(rhs),rhsMax =  -8.06849287181534E-03  2.28583723696738E-01
 cg2d: Sum(rhs),rhsMax =  -8.06896360206879E-03  2.28587311576032E-01
 cg2d: Sum(rhs),rhsMax =  -8.06943522948574E-03  2.28590896987831E-01
 cg2d: Sum(rhs),rhsMax =  -8.06990775203529E-03  2.28594479934311E-01
 cg2d: Sum(rhs),rhsMax =  -8.07038116727892E-03  2.28598060417644E-01
 cg2d: Sum(rhs),rhsMax =  -8.07085547292246E-03  2.28601638440020E-01
 cg2d: Sum(rhs),rhsMax =  -8.07133066637334E-03  2.28605214003622E-01
 cg2d: Sum(rhs),rhsMax =  -8.07180674566122E-03  2.28608787110658E-01
 cg2d: Sum(rhs),rhsMax =  -8.07228370785423E-03  2.28612357763343E-01
 cg2d: Sum(rhs),rhsMax =  -8.07276155062091E-03  2.28615925963874E-01
 cg2d: Sum(rhs),rhsMax =  -8.07324027142377E-03  2.28619491714483E-01
 cg2d: Sum(rhs),rhsMax =  -8.07371986789620E-03  2.28623055017388E-01
 cg2d: Sum(rhs),rhsMax =  -8.07420033696515E-03  2.28626615874839E-01
 cg2d: Sum(rhs),rhsMax =  -8.07468167608081E-03  2.28630174289070E-01
 cg2d: Sum(rhs),rhsMax =  -8.07516388263113E-03  2.28633730262329E-01
 cg2d: Sum(rhs),rhsMax =  -8.07564695386865E-03  2.28637283796875E-01
 cg2d: Sum(rhs),rhsMax =  -8.07613088734195E-03  2.28640834894974E-01
 cg2d: Sum(rhs),rhsMax =  -8.07661567983076E-03  2.28644383558891E-01
 cg2d: Sum(rhs),rhsMax =  -8.07710132843028E-03  2.28647929790908E-01
 cg2d: Sum(rhs),rhsMax =  -8.07758783025880E-03  2.28651473593312E-01
 cg2d: Sum(rhs),rhsMax =  -8.07807518264936E-03  2.28655014968393E-01
 cg2d: Sum(rhs),rhsMax =  -8.07856338280589E-03  2.28658553918452E-01
 cg2d: Sum(rhs),rhsMax =  -8.07905242734160E-03  2.28662090445787E-01
 cg2d: Sum(rhs),rhsMax =  -8.07954231301480E-03  2.28665624552722E-01
 cg2d: Sum(rhs),rhsMax =  -8.08003303770206E-03  2.28669156241568E-01
 cg2d: Sum(rhs),rhsMax =  -8.08052459705947E-03  2.28672685514658E-01
 cg2d: Sum(rhs),rhsMax =  -8.08101698885059E-03  2.28676212374326E-01
 cg2d: Sum(rhs),rhsMax =  -8.08151020937384E-03  2.28679736822916E-01
 cg2d: Sum(rhs),rhsMax =  -8.08200425574234E-03  2.28683258862770E-01
 cg2d: Sum(rhs),rhsMax =  -8.08249912485189E-03  2.28686778496240E-01
(PID.TID 0000.0001)      cg2d_init_res =   3.12610970744832E-04
(PID.TID 0000.0001)      cg2d_iters(min,last) =      -1      68
(PID.TID 0000.0001)      cg2d_last_res =   9.41337322927546E-08
(PID.TID 0000.0001) // =======================================================
(PID.TID 0000.0001) // Begin MONITOR dynamic field statistics
(PID.TID 0000.0001) // =======================================================
(PID.TID 0000.0001) %MON time_tsnumber                =                 18504
(PID.TID 0000.0001) %MON time_secondsf                =   2.2204800000000E+07
(PID.TID 0000.0001) %MON dynstat_eta_max              =   3.7659710203178E-01
(PID.TID 0000.0001) %MON dynstat_eta_min              =  -1.1752824164404E-01
(PID.TID 0000.0001) %MON dynstat_eta_mean             =   9.2377764864376E-06
(PID.TID 0000.0001) %MON dynstat_eta_sd               =   1.4396616834154E-01
(PID.TID 0000.0001) %MON dynstat_eta_del2             =   3.6684845767906E-05
(PID.TID 0000.0001) %MON dynstat_uvel_max             =   1.7572419322811E-01
(PID.TID 0000.0001) %MON dynstat_uvel_min             =  -1.4094215143486E-01
(PID.TID 0000.0001) %MON dynstat_uvel_mean            =  -1.3036309242135E-09
(PID.TID 0000.0001) %MON dynstat_uvel_sd              =   5.8618693734785E-02
(PID.TID 0000.0001) %MON dynstat_uvel_del2            =   7.6644419035460E-05
(PID.TID 0000.0001) %MON dynstat_vvel_max             =   1.2347226426341E-01
(PID.TID 0000.0001) %MON dynstat_vvel_min             =  -1.5078289481366E-01
(PID.TID 0000.0001) %MON dynstat_vvel_mean            =   7.5401541772459E-08
(PID.TID 0000.0001) %MON dynstat_vvel_sd              =   5.3972846847595E-02
(PID.TID 0000.0001) %MON dynstat_vvel_del2            =   3.7208638397409E-05
(PID.TID 0000.0001) %MON dynstat_wvel_max             =   1.2431906799320E-08
(PID.TID 0000.0001) %MON dynstat_wvel_min             =  -3.6035912320949E-09
(PID.TID 0000.0001) %MON dynstat_wvel_mean            =   2.1607457812125E-20
(PID.TID 0000.0001) %MON dynstat_wvel_sd              =   4.1836621128541E-09
(PID.TID 0000.0001) %MON dynstat_wvel_del2            =   1.2102580963630E-12
(PID.TID 0000.0001) %MON dynstat_theta_max            =   2.0000000000000E+01
(PID.TID 0000.0001) %MON dynstat_theta_min            =   2.0000000000000E+01
(PID.TID 0000.0001) %MON dynstat_theta_mean           =   2.0000000000000E+01
(PID.TID 0000.0001) %MON dynstat_theta_sd             =   3.8014036363165E-13
(PID.TID 0000.0001) %MON dynstat_theta_del2           =   0.0000000000000E+00
(PID.TID 0000.0001) %MON dynstat_salt_max             =   3.0000000000000E+01
(PID.TID 0000.0001) %MON dynstat_salt_min             =   3.0000000000000E+01
(PID.TID 0000.0001) %MON dynstat_salt_mean            =   2.9999999999999E+01
(PID.TID 0000.0001) %MON dynstat_salt_sd              =   5.5777604757167E-13
(PID.TID 0000.0001) %MON dynstat_salt_del2            =   0.0000000000000E+00
(PID.TID 0000.0001) %MON trAdv_CFL_u_max              =   1.0542652578621E-02
(PID.TID 0000.0001) %MON trAdv_CFL_v_max              =   9.0348816042542E-03
(PID.TID 0000.0001) %MON trAdv_CFL_w_max              =   3.2722447240164E-09
(PID.TID 0000.0001) %MON advcfl_uvel_max              =   1.0543451593687E-02
(PID.TID 0000.0001) %MON advcfl_vvel_max              =   9.0469736888196E-03
(PID.TID 0000.0001) %MON advcfl_wvel_max              =   5.9673152636737E-09
(PID.TID 0000.0001) %MON advcfl_W_hf_max              =   0.0000000000000E+00
(PID.TID 0000.0001) %MON pe_b_mean                    =   2.1249278443236E-05
(PID.TID 0000.0001) %MON ke_max                       =   1.5474989393283E-02
(PID.TID 0000.0001) %MON ke_mean                      =   3.1162330466364E-03
(PID.TID 0000.0001) %MON ke_vol                       =   6.8893493896486E+15
(PID.TID 0000.0001) %MON vort_r_min                   =  -1.1114368853070E-06
(PID.TID 0000.0001) %MON vort_r_max                   =   3.7600906439540E-06
(PID.TID 0000.0001) %MON vort_a_mean                  =   1.0600000000000E-04
(PID.TID 0000.0001) %MON vort_a_sd                    =   3.5798605354909E-06
(PID.TID 0000.0001) %MON vort_p_mean                  =   1.1652272308690E-04
(PID.TID 0000.0001) %MON vort_p_sd                    =   4.1792834871220E-05
(PID.TID 0000.0001) %MON surfExpan_theta_mean         =   4.3216661854078E-19
(PID.TID 0000.0001) %MON surfExpan_salt_mean          =   6.4825498055951E-19
(PID.TID 0000.0001) // =======================================================
(PID.TID 0000.0001) // End MONITOR dynamic field statistics
(PID.TID 0000.0001) // =======================================================
 cg2d: Sum(rhs),rhsMax =  -8.08299481345376E-03  2.28690295725699E-01
 cg2d: Sum(rhs),rhsMax =  -8.08349131817371E-03  2.28693810553508E-01
 cg2d: Sum(rhs),rhsMax =  -8.08398863540855E-03  2.28697322982048E-01
 cg2d: Sum(rhs),rhsMax =  -8.08448676189083E-03  2.28700833013701E-01
 cg2d: Sum(rhs),rhsMax =  -8.08498569454046E-03  2.28704340650859E-01
 cg2d: Sum(rhs),rhsMax =  -8.08548542974507E-03  2.28707845895915E-01
 cg2d: Sum(rhs),rhsMax =  -8.08598596440241E-03  2.28711348751272E-01
 cg2d: Sum(rhs),rhsMax =  -8.08648729475282E-03  2.28714849219348E-01
 cg2d: Sum(rhs),rhsMax =  -8.08698941733282E-03  2.28718347302552E-01
 cg2d: Sum(rhs),rhsMax =  -8.08749232879766E-03  2.28721843003317E-01
 cg2d: Sum(rhs),rhsMax =  -8.08799602512423E-03  2.28725336324068E-01
 cg2d: Sum(rhs),rhsMax =  -8.08850050364741E-03  2.28728827267247E-01
 cg2d: Sum(rhs),rhsMax =  -8.08900575958340E-03  2.28732315835300E-01
 cg2d: Sum(rhs),rhsMax =  -8.08951179079016E-03  2.28735802030679E-01
 cg2d: Sum(rhs),rhsMax =  -8.09001859221404E-03  2.28739285855838E-01
 cg2d: Sum(rhs),rhsMax =  -8.09052616114651E-03  2.28742767313253E-01
 cg2d: Sum(rhs),rhsMax =  -8.09103449333669E-03  2.28746246405385E-01
 cg2d: Sum(rhs),rhsMax =  -8.09154358538045E-03  2.28749723134729E-01
 cg2d: Sum(rhs),rhsMax =  -8.09205343394836E-03  2.28753197503753E-01
 cg2d: Sum(rhs),rhsMax =  -8.09256403461982E-03  2.28756669514968E-01
 cg2d: Sum(rhs),rhsMax =  -8.09307538383899E-03  2.28760139170859E-01
 cg2d: Sum(rhs),rhsMax =  -8.09358747817749E-03  2.28763606473947E-01
 cg2d: Sum(rhs),rhsMax =  -8.09410031313095E-03  2.28767071426732E-01
 cg2d: Sum(rhs),rhsMax =  -8.09461388537296E-03  2.28770534031753E-01
 cg2d: Sum(rhs),rhsMax =  -8.09512819107619E-03  2.28773994291519E-01
 cg2d: Sum(rhs),rhsMax =  -8.09564322611677E-03  2.28777452208575E-01
 cg2d: Sum(rhs),rhsMax =  -8.09615898699255E-03  2.28780907785453E-01
 cg2d: Sum(rhs),rhsMax =  -8.09667546958728E-03  2.28784361024715E-01
 cg2d: Sum(rhs),rhsMax =  -8.09719266973765E-03  2.28787811928901E-01
 cg2d: Sum(rhs),rhsMax =  -8.09771058379916E-03  2.28791260500579E-01
 cg2d: Sum(rhs),rhsMax =  -8.09822920796614E-03  2.28794706742318E-01
 cg2d: Sum(rhs),rhsMax =  -8.09885655897154E-03  2.28798150737170E-01
 cg2d: Sum(rhs),rhsMax =  -8.09948416467089E-03  2.28801592312630E-01
 cg2d: Sum(rhs),rhsMax =  -8.10011259805046E-03  2.28805031581572E-01
 cg2d: Sum(rhs),rhsMax =  -8.10074158451583E-03  2.28808468519864E-01
 cg2d: Sum(rhs),rhsMax =  -8.10137123104434E-03  2.28811903149449E-01
 cg2d: Sum(rhs),rhsMax =  -8.10200147912363E-03  2.28815335457796E-01
 cg2d: Sum(rhs),rhsMax =  -8.10263235195464E-03  2.28818765457968E-01
 cg2d: Sum(rhs),rhsMax =  -8.10326382564923E-03  2.28822193145766E-01
 cg2d: Sum(rhs),rhsMax =  -8.10389590528530E-03  2.28825618528407E-01
 cg2d: Sum(rhs),rhsMax =  -8.10452858030226E-03  2.28829041605842E-01
 cg2d: Sum(rhs),rhsMax =  -8.10516185172696E-03  2.28832462382755E-01
 cg2d: Sum(rhs),rhsMax =  -8.10579571436884E-03  2.28835880860818E-01
 cg2d: Sum(rhs),rhsMax =  -8.10643016675245E-03  2.28839297043413E-01
 cg2d: Sum(rhs),rhsMax =  -8.10706520439574E-03  2.28842710932714E-01
 cg2d: Sum(rhs),rhsMax =  -8.10770082437929E-03  2.28846122531566E-01
 cg2d: Sum(rhs),rhsMax =  -8.10833702248803E-03  2.28849531842422E-01
 cg2d: Sum(rhs),rhsMax =  -8.10897379457011E-03  2.28852938868034E-01
 cg2d: Sum(rhs),rhsMax =  -8.10961113744002E-03  2.28856343611013E-01
 cg2d: Sum(rhs),rhsMax =  -8.11024904730501E-03  2.28859746074094E-01
 cg2d: Sum(rhs),rhsMax =  -8.11088752054943E-03  2.28863146259970E-01
 cg2d: Sum(rhs),rhsMax =  -8.11152655343429E-03  2.28866544171363E-01
 cg2d: Sum(rhs),rhsMax =  -8.11216614196613E-03  2.28869939810992E-01
 cg2d: Sum(rhs),rhsMax =  -8.11280628321114E-03  2.28873333181601E-01
 cg2d: Sum(rhs),rhsMax =  -8.11344697281952E-03  2.28876724285926E-01
 cg2d: Sum(rhs),rhsMax =  -8.11408820730611E-03  2.28880113126691E-01
 cg2d: Sum(rhs),rhsMax =  -8.11472998297688E-03  2.28883499706653E-01
 cg2d: Sum(rhs),rhsMax =  -8.11537229558574E-03  2.28886884028542E-01
 cg2d: Sum(rhs),rhsMax =  -8.11601514198819E-03  2.28890266095106E-01
 cg2d: Sum(rhs),rhsMax =  -8.11665851810273E-03  2.28893645909101E-01
 cg2d: Sum(rhs),rhsMax =  -8.11730242022120E-03  2.28897023473284E-01
 cg2d: Sum(rhs),rhsMax =  -8.11794684468804E-03  2.28900398790436E-01
 cg2d: Sum(rhs),rhsMax =  -8.11859178804495E-03  2.28903771863332E-01
 cg2d: Sum(rhs),rhsMax =  -8.11923724559264E-03  2.28907142694761E-01
 cg2d: Sum(rhs),rhsMax =  -8.11988321398464E-03  2.28910511287518E-01
 cg2d: Sum(rhs),rhsMax =  -8.12052968929398E-03  2.28913877644409E-01
 cg2d: Sum(rhs),rhsMax =  -8.12117666799262E-03  2.28917241768230E-01
 cg2d: Sum(rhs),rhsMax =  -8.12182414573344E-03  2.28920603661804E-01
 cg2d: Sum(rhs),rhsMax =  -8.12247211928738E-03  2.28923963327935E-01
 cg2d: Sum(rhs),rhsMax =  -8.12312058434060E-03  2.28927320769451E-01
 cg2d: Sum(rhs),rhsMax =  -8.12376953672927E-03  2.28930675989181E-01
 cg2d: Sum(rhs),rhsMax =  -8.12441897359036E-03  2.28934028989969E-01
(PID.TID 0000.0001)      cg2d_init_res =   3.09720866752625E-04
(PID.TID 0000.0001)      cg2d_iters(min,last) =      -1      67
(PID.TID 0000.0001)      cg2d_last_res =   9.89871876954616E-08
(PID.TID 0000.0001) // =======================================================
(PID.TID 0000.0001) // Begin MONITOR dynamic field statistics
(PID.TID 0000.0001) // =======================================================
(PID.TID 0000.0001) %MON time_tsnumber                =                 18576
(PID.TID 0000.0001) %MON time_secondsf                =   2.2291200000000E+07
(PID.TID 0000.0001) %MON dynstat_eta_max              =   3.7765965261198E-01
(PID.TID 0000.0001) %MON dynstat_eta_min              =  -1.1776283688560E-01
(PID.TID 0000.0001) %MON dynstat_eta_mean             =   9.2958942309996E-06
(PID.TID 0000.0001) %MON dynstat_eta_sd               =   1.4431492553283E-01
(PID.TID 0000.0001) %MON dynstat_eta_del2             =   3.6762384839519E-05
(PID.TID 0000.0001) %MON dynstat_uvel_max             =   1.7600840799706E-01
(PID.TID 0000.0001) %MON dynstat_uvel_min             =  -1.4130306684178E-01
(PID.TID 0000.0001) %MON dynstat_uvel_mean            =  -4.5687421608983E-09
(PID.TID 0000.0001) %MON dynstat_uvel_sd              =   5.8750179019219E-02
(PID.TID 0000.0001) %MON dynstat_uvel_del2            =   7.6695231873968E-05
(PID.TID 0000.0001) %MON dynstat_vvel_max             =   1.2387616139128E-01
(PID.TID 0000.0001) %MON dynstat_vvel_min             =  -1.5115793083082E-01
(PID.TID 0000.0001) %MON dynstat_vvel_mean            =   7.5493702263699E-08
(PID.TID 0000.0001) %MON dynstat_vvel_sd              =   5.4112960660568E-02
(PID.TID 0000.0001) %MON dynstat_vvel_del2            =   3.7203896970994E-05
(PID.TID 0000.0001) %MON dynstat_wvel_max             =   1.2393429507501E-08
(PID.TID 0000.0001) %MON dynstat_wvel_min             =  -3.5909852059558E-09
(PID.TID 0000.0001) %MON dynstat_wvel_mean            =   4.1775302229831E-21
(PID.TID 0000.0001) %MON dynstat_wvel_sd              =   4.1764925794481E-09
(PID.TID 0000.0001) %MON dynstat_wvel_del2            =   1.2055530821026E-12
(PID.TID 0000.0001) %MON dynstat_theta_max            =   2.0000000000000E+01
(PID.TID 0000.0001) %MON dynstat_theta_min            =   2.0000000000000E+01
(PID.TID 0000.0001) %MON dynstat_theta_mean           =   2.0000000000000E+01
(PID.TID 0000.0001) %MON dynstat_theta_sd             =   3.8014036363165E-13
(PID.TID 0000.0001) %MON dynstat_theta_del2           =   0.0000000000000E+00
(PID.TID 0000.0001) %MON dynstat_salt_max             =   3.0000000000000E+01
(PID.TID 0000.0001) %MON dynstat_salt_min             =   3.0000000000000E+01
(PID.TID 0000.0001) %MON dynstat_salt_mean            =   2.9999999999999E+01
(PID.TID 0000.0001) %MON dynstat_salt_sd              =   5.5777604757167E-13
(PID.TID 0000.0001) %MON dynstat_salt_del2            =   0.0000000000000E+00
(PID.TID 0000.0001) %MON trAdv_CFL_u_max              =   1.0559988965785E-02
(PID.TID 0000.0001) %MON trAdv_CFL_v_max              =   9.0573531192466E-03
(PID.TID 0000.0001) %MON trAdv_CFL_w_max              =   3.2652504592955E-09
(PID.TID 0000.0001) %MON advcfl_uvel_max              =   1.0560504479823E-02
(PID.TID 0000.0001) %MON advcfl_vvel_max              =   9.0694758498491E-03
(PID.TID 0000.0001) %MON advcfl_wvel_max              =   5.9488461636007E-09
(PID.TID 0000.0001) %MON advcfl_W_hf_max              =   0.0000000000000E+00
(PID.TID 0000.0001) %MON pe_b_mean                    =   2.1352355647521E-05
(PID.TID 0000.0001) %MON ke_max                       =   1.5524678866000E-02
(PID.TID 0000.0001) %MON ke_mean                      =   3.1312402131286E-03
(PID.TID 0000.0001) %MON ke_vol                       =   6.8893493896486E+15
(PID.TID 0000.0001) %MON vort_r_min                   =  -1.1144312819959E-06
(PID.TID 0000.0001) %MON vort_r_max                   =   3.7654195988916E-06
(PID.TID 0000.0001) %MON vort_a_mean                  =   1.0600000000000E-04
(PID.TID 0000.0001) %MON vort_a_sd                    =   3.5800721975972E-06
(PID.TID 0000.0001) %MON vort_p_mean                  =   1.1652272308690E-04
(PID.TID 0000.0001) %MON vort_p_sd                    =   4.1792836002173E-05
(PID.TID 0000.0001) %MON surfExpan_theta_mean         =   8.3573089189789E-20
(PID.TID 0000.0001) %MON surfExpan_salt_mean          =   1.2534952828800E-19
(PID.TID 0000.0001) // =======================================================
(PID.TID 0000.0001) // End MONITOR dynamic field statistics
(PID.TID 0000.0001) // =======================================================
 cg2d: Sum(rhs),rhsMax =  -8.12506889020389E-03  2.28937379774647E-01
 cg2d: Sum(rhs),rhsMax =  -8.12571928310656E-03  2.28940728346071E-01
 cg2d: Sum(rhs),rhsMax =  -8.12637014855604E-03  2.28944074707097E-01
 cg2d: Sum(rhs),rhsMax =  -8.12702148206962E-03  2.28947418860587E-01
 cg2d: Sum(rhs),rhsMax =  -8.12767328035178E-03  2.28950760809409E-01
 cg2d: Sum(rhs),rhsMax =  -8.12832553954261E-03  2.28954100556437E-01
 cg2d: Sum(rhs),rhsMax =  -8.12897825508851E-03  2.28957438104556E-01
 cg2d: Sum(rhs),rhsMax =  -8.12963142369507E-03  2.28960773456649E-01
 cg2d: Sum(rhs),rhsMax =  -8.13028504099269E-03  2.28964106615611E-01
 cg2d: Sum(rhs),rhsMax =  -8.13093910344992E-03  2.28967437584347E-01
 cg2d: Sum(rhs),rhsMax =  -8.13159360690750E-03  2.28970766365757E-01
 cg2d: Sum(rhs),rhsMax =  -8.13224854772715E-03  2.28974092962759E-01
 cg2d: Sum(rhs),rhsMax =  -8.13290392135533E-03  2.28977417378265E-01
 cg2d: Sum(rhs),rhsMax =  -8.13355972475289E-03  2.28980739615208E-01
 cg2d: Sum(rhs),rhsMax =  -8.13421595319252E-03  2.28984059676511E-01
 cg2d: Sum(rhs),rhsMax =  -8.13487260324961E-03  2.28987377565123E-01
 cg2d: Sum(rhs),rhsMax =  -8.13552967053408E-03  2.28990693283981E-01
 cg2d: Sum(rhs),rhsMax =  -8.13618715128547E-03  2.28994006836032E-01
 cg2d: Sum(rhs),rhsMax =  -8.13684504153269E-03  2.28997318224240E-01
 cg2d: Sum(rhs),rhsMax =  -8.13750333771778E-03  2.29000627451559E-01
 cg2d: Sum(rhs),rhsMax =  -8.13816203548876E-03  2.29003934520968E-01
 cg2d: Sum(rhs),rhsMax =  -8.13882113076435E-03  2.29007239435431E-01
 cg2d: Sum(rhs),rhsMax =  -8.13948061971189E-03  2.29010542197932E-01
 cg2d: Sum(rhs),rhsMax =  -8.14014049852643E-03  2.29013842811461E-01
 cg2d: Sum(rhs),rhsMax =  -8.14080076316762E-03  2.29017141279016E-01
 cg2d: Sum(rhs),rhsMax =  -8.14146140967357E-03  2.29020437603581E-01
 cg2d: Sum(rhs),rhsMax =  -8.14212243368380E-03  2.29023731788178E-01
 cg2d: Sum(rhs),rhsMax =  -8.14278383180449E-03  2.29027023835808E-01
 cg2d: Sum(rhs),rhsMax =  -8.14344559977517E-03  2.29030313749496E-01
 cg2d: Sum(rhs),rhsMax =  -8.14410773332420E-03  2.29033601532262E-01
 cg2d: Sum(rhs),rhsMax =  -8.14477022905552E-03  2.29036887187134E-01
 cg2d: Sum(rhs),rhsMax =  -8.14543308278244E-03  2.29040170717153E-01
 cg2d: Sum(rhs),rhsMax =  -8.14609629017887E-03  2.29043452125360E-01
 cg2d: Sum(rhs),rhsMax =  -8.14675984769020E-03  2.29046731414795E-01
 cg2d: Sum(rhs),rhsMax =  -8.14742375102181E-03  2.29050008588525E-01
 cg2d: Sum(rhs),rhsMax =  -8.14808799630557E-03  2.29053283649601E-01
 cg2d: Sum(rhs),rhsMax =  -8.14875257950640E-03  2.29056556601097E-01
 cg2d: Sum(rhs),rhsMax =  -8.14941749711090E-03  2.29059827446072E-01
 cg2d: Sum(rhs),rhsMax =  -8.15008274453013E-03  2.29063096187619E-01
 cg2d: Sum(rhs),rhsMax =  -8.15074831777676E-03  2.29066362828813E-01
 cg2d: Sum(rhs),rhsMax =  -8.15141421262852E-03  2.29069627372751E-01
 cg2d: Sum(rhs),rhsMax =  -8.15208042564597E-03  2.29072889822524E-01
 cg2d: Sum(rhs),rhsMax =  -8.15274695284383E-03  2.29076150181239E-01
 cg2d: Sum(rhs),rhsMax =  -8.15341378996639E-03  2.29079408451993E-01
 cg2d: Sum(rhs),rhsMax =  -8.15408093309759E-03  2.29082664637912E-01
 cg2d: Sum(rhs),rhsMax =  -8.15474837795249E-03  2.29085918742112E-01
 cg2d: Sum(rhs),rhsMax =  -8.15541612114990E-03  2.29089170767719E-01
 cg2d: Sum(rhs),rhsMax =  -8.15608415814873E-03  2.29092420717863E-01
 cg2d: Sum(rhs),rhsMax =  -8.15675248521436E-03  2.29095668595686E-01
 cg2d: Sum(rhs),rhsMax =  -8.15742109793195E-03  2.29098914404328E-01
 cg2d: Sum(rhs),rhsMax =  -8.15808999298512E-03  2.29102158146936E-01
 cg2d: Sum(rhs),rhsMax =  -8.15875916566529E-03  2.29105399826671E-01
 cg2d: Sum(rhs),rhsMax =  -8.15942861261735E-03  2.29108639446695E-01
 cg2d: Sum(rhs),rhsMax =  -8.16009832954018E-03  2.29111877010172E-01
 cg2d: Sum(rhs),rhsMax =  -8.16076831211767E-03  2.29115112520276E-01
 cg2d: Sum(rhs),rhsMax =  -8.16143855681932E-03  2.29118345980181E-01
 cg2d: Sum(rhs),rhsMax =  -8.16210905994093E-03  2.29121577393077E-01
 cg2d: Sum(rhs),rhsMax =  -8.16277981655630E-03  2.29124806762160E-01
 cg2d: Sum(rhs),rhsMax =  -8.16345082303275E-03  2.29128034090608E-01
 cg2d: Sum(rhs),rhsMax =  -8.16412207559606E-03  2.29131259381641E-01
 cg2d: Sum(rhs),rhsMax =  -8.16479357009253E-03  2.29134482638464E-01
 cg2d: Sum(rhs),rhsMax =  -8.16546530292996E-03  2.29137703864284E-01
 cg2d: Sum(rhs),rhsMax =  -8.16613726972593E-03  2.29140923062323E-01
 cg2d: Sum(rhs),rhsMax =  -8.16680946629127E-03  2.29144140235810E-01
 cg2d: Sum(rhs),rhsMax =  -8.16748188861184E-03  2.29147355387968E-01
 cg2d: Sum(rhs),rhsMax =  -8.16815453323692E-03  2.29150568522039E-01
 cg2d: Sum(rhs),rhsMax =  -8.16882739560599E-03  2.29153779641266E-01
 cg2d: Sum(rhs),rhsMax =  -8.16950047192369E-03  2.29156988748893E-01
 cg2d: Sum(rhs),rhsMax =  -8.17017375816188E-03  2.29160195848181E-01
 cg2d: Sum(rhs),rhsMax =  -8.17084725098838E-03  2.29163400942382E-01
 cg2d: Sum(rhs),rhsMax =  -8.17152094559934E-03  2.29166604034763E-01
 cg2d: Sum(rhs),rhsMax =  -8.17219483792065E-03  2.29169805128595E-01
(PID.TID 0000.0001)      cg2d_init_res =   3.06960900854166E-04
(PID.TID 0000.0001)      cg2d_iters(min,last) =      -1      67
(PID.TID 0000.0001)      cg2d_last_res =   9.77778577277974E-08
(PID.TID 0000.0001) // =======================================================
(PID.TID 0000.0001) // Begin MONITOR dynamic field statistics
(PID.TID 0000.0001) // =======================================================
(PID.TID 0000.0001) %MON time_tsnumber                =                 18648
(PID.TID 0000.0001) %MON time_secondsf                =   2.2377600000000E+07
(PID.TID 0000.0001) %MON dynstat_eta_max              =   3.7872076750478E-01
(PID.TID 0000.0001) %MON dynstat_eta_min              =  -1.1799686906212E-01
(PID.TID 0000.0001) %MON dynstat_eta_mean             =   9.3602059723934E-06
(PID.TID 0000.0001) %MON dynstat_eta_sd               =   1.4466350006463E-01
(PID.TID 0000.0001) %MON dynstat_eta_del2             =   3.6839259361898E-05
(PID.TID 0000.0001) %MON dynstat_uvel_max             =   1.7628728416245E-01
(PID.TID 0000.0001) %MON dynstat_uvel_min             =  -1.4166791064323E-01
(PID.TID 0000.0001) %MON dynstat_uvel_mean            =  -7.3871700528881E-09
(PID.TID 0000.0001) %MON dynstat_uvel_sd              =   5.8882517816871E-02
(PID.TID 0000.0001) %MON dynstat_uvel_del2            =   7.6743512350880E-05
(PID.TID 0000.0001) %MON dynstat_vvel_max             =   1.2428333058014E-01
(PID.TID 0000.0001) %MON dynstat_vvel_min             =  -1.5153456845816E-01
(PID.TID 0000.0001) %MON dynstat_vvel_mean            =   7.6103666923041E-08
(PID.TID 0000.0001) %MON dynstat_vvel_sd              =   5.4251585681833E-02
(PID.TID 0000.0001) %MON dynstat_vvel_del2            =   3.7201045061434E-05
(PID.TID 0000.0001) %MON dynstat_wvel_max             =   1.2360701534199E-08
(PID.TID 0000.0001) %MON dynstat_wvel_min             =  -3.5645564133301E-09
(PID.TID 0000.0001) %MON dynstat_wvel_mean            =   7.5438377835882E-21
(PID.TID 0000.0001) %MON dynstat_wvel_sd              =   4.1693633584394E-09
(PID.TID 0000.0001) %MON dynstat_wvel_del2            =   1.1980727496734E-12
(PID.TID 0000.0001) %MON dynstat_theta_max            =   2.0000000000000E+01
(PID.TID 0000.0001) %MON dynstat_theta_min            =   2.0000000000000E+01
(PID.TID 0000.0001) %MON dynstat_theta_mean           =   2.0000000000000E+01
(PID.TID 0000.0001) %MON dynstat_theta_sd             =   3.8014036363165E-13
(PID.TID 0000.0001) %MON dynstat_theta_del2           =   0.0000000000000E+00
(PID.TID 0000.0001) %MON dynstat_salt_max             =   3.0000000000000E+01
(PID.TID 0000.0001) %MON dynstat_salt_min             =   3.0000000000000E+01
(PID.TID 0000.0001) %MON dynstat_salt_mean            =   2.9999999999999E+01
(PID.TID 0000.0001) %MON dynstat_salt_sd              =   5.5777604757167E-13
(PID.TID 0000.0001) %MON dynstat_salt_del2            =   0.0000000000000E+00
(PID.TID 0000.0001) %MON trAdv_CFL_u_max              =   1.0576729437051E-02
(PID.TID 0000.0001) %MON trAdv_CFL_v_max              =   9.0799206267307E-03
(PID.TID 0000.0001) %MON trAdv_CFL_w_max              =   3.2588580018454E-09
(PID.TID 0000.0001) %MON advcfl_uvel_max              =   1.0577237049747E-02
(PID.TID 0000.0001) %MON advcfl_vvel_max              =   9.0920741074896E-03
(PID.TID 0000.0001) %MON advcfl_wvel_max              =   5.9331367364153E-09
(PID.TID 0000.0001) %MON advcfl_W_hf_max              =   0.0000000000000E+00
(PID.TID 0000.0001) %MON pe_b_mean                    =   2.1455628071795E-05
(PID.TID 0000.0001) %MON ke_max                       =   1.5572677424642E-02
(PID.TID 0000.0001) %MON ke_mean                      =   3.1462536682990E-03
(PID.TID 0000.0001) %MON ke_vol                       =   6.8893493896486E+15
(PID.TID 0000.0001) %MON vort_r_min                   =  -1.1174174217763E-06
(PID.TID 0000.0001) %MON vort_r_max                   =   3.7705315451681E-06
(PID.TID 0000.0001) %MON vort_a_mean                  =   1.0600000000000E-04
(PID.TID 0000.0001) %MON vort_a_sd                    =   3.5802825897452E-06
(PID.TID 0000.0001) %MON vort_p_mean                  =   1.1652272308690E-04
(PID.TID 0000.0001) %MON vort_p_sd                    =   4.1792836855409E-05
(PID.TID 0000.0001) %MON surfExpan_theta_mean         =   1.5091232954647E-19
(PID.TID 0000.0001) %MON surfExpan_salt_mean          =   2.2636975750680E-19
(PID.TID 0000.0001) // =======================================================
(PID.TID 0000.0001) // End MONITOR dynamic field statistics
(PID.TID 0000.0001) // =======================================================
 cg2d: Sum(rhs),rhsMax =  -8.17286892427199E-03  2.29173004227155E-01
 cg2d: Sum(rhs),rhsMax =  -8.17354320083065E-03  2.29176201333727E-01
 cg2d: Sum(rhs),rhsMax =  -8.17421766327370E-03  2.29179396451595E-01
 cg2d: Sum(rhs),rhsMax =  -8.17489230774184E-03  2.29182589584057E-01
 cg2d: Sum(rhs),rhsMax =  -8.17556713064031E-03  2.29185780734406E-01
 cg2d: Sum(rhs),rhsMax =  -8.17624212750074E-03  2.29188969905951E-01
 cg2d: Sum(rhs),rhsMax =  -8.17691729449139E-03  2.29192157102000E-01
 cg2d: Sum(rhs),rhsMax =  -8.17759262734144E-03  2.29195342325872E-01
 cg2d: Sum(rhs),rhsMax =  -8.17826812275798E-03  2.29198525580885E-01
 cg2d: Sum(rhs),rhsMax =  -8.17894377599001E-03  2.29201706870363E-01
 cg2d: Sum(rhs),rhsMax =  -8.17961958408226E-03  2.29204886197643E-01
 cg2d: Sum(rhs),rhsMax =  -8.18029554216585E-03  2.29208063566066E-01
 cg2d: Sum(rhs),rhsMax =  -8.18097164630872E-03  2.29211238978975E-01
 cg2d: Sum(rhs),rhsMax =  -8.18164789289803E-03  2.29214412439709E-01
 cg2d: Sum(rhs),rhsMax =  -8.18232427749459E-03  2.29217583951630E-01
 cg2d: Sum(rhs),rhsMax =  -8.18300079666539E-03  2.29220753518099E-01
 cg2d: Sum(rhs),rhsMax =  -8.18367744643907E-03  2.29223921142484E-01
 cg2d: Sum(rhs),rhsMax =  -8.18435422246316E-03  2.29227086828146E-01
 cg2d: Sum(rhs),rhsMax =  -8.18503112114447E-03  2.29230250578472E-01
 cg2d: Sum(rhs),rhsMax =  -8.18570813782899E-03  2.29233412396839E-01
 cg2d: Sum(rhs),rhsMax =  -8.18638526977077E-03  2.29236572286630E-01
 cg2d: Sum(rhs),rhsMax =  -8.18706251190797E-03  2.29239730251248E-01
 cg2d: Sum(rhs),rhsMax =  -8.18773986087265E-03  2.29242886294089E-01
 cg2d: Sum(rhs),rhsMax =  -8.18841731275893E-03  2.29246040418547E-01
 cg2d: Sum(rhs),rhsMax =  -8.18909486286358E-03  2.29249192628044E-01
 cg2d: Sum(rhs),rhsMax =  -8.18977250825877E-03  2.29252342925985E-01
 cg2d: Sum(rhs),rhsMax =  -8.19045024410773E-03  2.29255491315790E-01
 cg2d: Sum(rhs),rhsMax =  -8.19112806681617E-03  2.29258637800893E-01
 cg2d: Sum(rhs),rhsMax =  -8.19180597295423E-03  2.29261782384717E-01
 cg2d: Sum(rhs),rhsMax =  -8.19248395792003E-03  2.29264925070699E-01
 cg2d: Sum(rhs),rhsMax =  -8.19316201787391E-03  2.29268065862286E-01
 cg2d: Sum(rhs),rhsMax =  -8.19384014895376E-03  2.29271204762913E-01
 cg2d: Sum(rhs),rhsMax =  -8.19451834711979E-03  2.29274341776043E-01
 cg2d: Sum(rhs),rhsMax =  -8.19519660877299E-03  2.29277476905126E-01
 cg2d: Sum(rhs),rhsMax =  -8.19587492990368E-03  2.29280610153632E-01
 cg2d: Sum(rhs),rhsMax =  -8.19655330636886E-03  2.29283741525021E-01
 cg2d: Sum(rhs),rhsMax =  -8.19723173433677E-03  2.29286871022772E-01
 cg2d: Sum(rhs),rhsMax =  -8.19791020980991E-03  2.29289998650358E-01
 cg2d: Sum(rhs),rhsMax =  -8.19858872892998E-03  2.29293124411269E-01
 cg2d: Sum(rhs),rhsMax =  -8.19926728762634E-03  2.29296248308990E-01
 cg2d: Sum(rhs),rhsMax =  -8.19994588234849E-03  2.29299370347013E-01
 cg2d: Sum(rhs),rhsMax =  -8.20062450861714E-03  2.29302490528846E-01
 cg2d: Sum(rhs),rhsMax =  -8.20130316275541E-03  2.29305608857978E-01
 cg2d: Sum(rhs),rhsMax =  -8.20198184127413E-03  2.29308725337933E-01
 cg2d: Sum(rhs),rhsMax =  -8.20266053966716E-03  2.29311839972222E-01
 cg2d: Sum(rhs),rhsMax =  -8.20333925443088E-03  2.29314952764360E-01
 cg2d: Sum(rhs),rhsMax =  -8.20401798131487E-03  2.29318063717877E-01
 cg2d: Sum(rhs),rhsMax =  -8.20469671672142E-03  2.29321172836307E-01
 cg2d: Sum(rhs),rhsMax =  -8.20537545664933E-03  2.29324280123177E-01
 cg2d: Sum(rhs),rhsMax =  -8.20605419691959E-03  2.29327385582032E-01
 cg2d: Sum(rhs),rhsMax =  -8.20673293369833E-03  2.29330489216416E-01
 cg2d: Sum(rhs),rhsMax =  -8.20741166379861E-03  2.29333591029884E-01
 cg2d: Sum(rhs),rhsMax =  -8.20809038214294E-03  2.29336691025987E-01
 cg2d: Sum(rhs),rhsMax =  -8.20876908545630E-03  2.29339789208289E-01
 cg2d: Sum(rhs),rhsMax =  -8.20944776999577E-03  2.29342885580355E-01
 cg2d: Sum(rhs),rhsMax =  -8.21012643209518E-03  2.29345980145756E-01
 cg2d: Sum(rhs),rhsMax =  -8.21080506725736E-03  2.29349072908070E-01
 cg2d: Sum(rhs),rhsMax =  -8.21148367181293E-03  2.29352163870874E-01
 cg2d: Sum(rhs),rhsMax =  -8.21216224176592E-03  2.29355253037762E-01
 cg2d: Sum(rhs),rhsMax =  -8.21284077337350E-03  2.29358340412316E-01
 cg2d: Sum(rhs),rhsMax =  -8.21351926271387E-03  2.29361425998139E-01
 cg2d: Sum(rhs),rhsMax =  -8.21419770590151E-03  2.29364509798832E-01
 cg2d: Sum(rhs),rhsMax =  -8.21487609898770E-03  2.29367591817996E-01
 cg2d: Sum(rhs),rhsMax =  -8.21555443822117E-03  2.29370672059248E-01
 cg2d: Sum(rhs),rhsMax =  -8.21623271972505E-03  2.29373750526200E-01
 cg2d: Sum(rhs),rhsMax =  -8.21691093984299E-03  2.29376827222475E-01
 cg2d: Sum(rhs),rhsMax =  -8.21758909404275E-03  2.29379902151701E-01
 cg2d: Sum(rhs),rhsMax =  -8.21826717906531E-03  2.29382975317507E-01
 cg2d: Sum(rhs),rhsMax =  -8.21894519100347E-03  2.29386046723528E-01
 cg2d: Sum(rhs),rhsMax =  -8.21962312542812E-03  2.29389116373405E-01
 cg2d: Sum(rhs),rhsMax =  -8.22030097906369E-03  2.29392184270785E-01
 cg2d: Sum(rhs),rhsMax =  -8.22097874765990E-03  2.29395250419323E-01
(PID.TID 0000.0001)      cg2d_init_res =   3.04380082740043E-04
(PID.TID 0000.0001)      cg2d_iters(min,last) =      -1      67
(PID.TID 0000.0001)      cg2d_last_res =   9.70185573158365E-08
(PID.TID 0000.0001) // =======================================================
(PID.TID 0000.0001) // Begin MONITOR dynamic field statistics
(PID.TID 0000.0001) // =======================================================
(PID.TID 0000.0001) %MON time_tsnumber                =                 18720
(PID.TID 0000.0001) %MON time_secondsf                =   2.2464000000000E+07
(PID.TID 0000.0001) %MON dynstat_eta_max              =   3.7978031179447E-01
(PID.TID 0000.0001) %MON dynstat_eta_min              =  -1.1823005251219E-01
(PID.TID 0000.0001) %MON dynstat_eta_mean             =   9.4253386062195E-06
(PID.TID 0000.0001) %MON dynstat_eta_sd               =   1.4501190009880E-01
(PID.TID 0000.0001) %MON dynstat_eta_del2             =   3.6915451021801E-05
(PID.TID 0000.0001) %MON dynstat_uvel_max             =   1.7655611825676E-01
(PID.TID 0000.0001) %MON dynstat_uvel_min             =  -1.4203696341184E-01
(PID.TID 0000.0001) %MON dynstat_uvel_mean            =  -9.6723131637416E-09
(PID.TID 0000.0001) %MON dynstat_uvel_sd              =   5.9015874798536E-02
(PID.TID 0000.0001) %MON dynstat_uvel_del2            =   7.6789333532349E-05
(PID.TID 0000.0001) %MON dynstat_vvel_max             =   1.2469208912051E-01
(PID.TID 0000.0001) %MON dynstat_vvel_min             =  -1.5191278718044E-01
(PID.TID 0000.0001) %MON dynstat_vvel_mean            =   7.7120961740719E-08
(PID.TID 0000.0001) %MON dynstat_vvel_sd              =   5.4388561730960E-02
(PID.TID 0000.0001) %MON dynstat_vvel_del2            =   3.7200574371338E-05
(PID.TID 0000.0001) %MON dynstat_wvel_max             =   1.2334853760549E-08
(PID.TID 0000.0001) %MON dynstat_wvel_min             =  -3.5161688947119E-09
(PID.TID 0000.0001) %MON dynstat_wvel_mean            =  -4.8866821897617E-21
(PID.TID 0000.0001) %MON dynstat_wvel_sd              =   4.1619745361218E-09
(PID.TID 0000.0001) %MON dynstat_wvel_del2            =   1.1912362300701E-12
(PID.TID 0000.0001) %MON dynstat_theta_max            =   2.0000000000000E+01
(PID.TID 0000.0001) %MON dynstat_theta_min            =   2.0000000000000E+01
(PID.TID 0000.0001) %MON dynstat_theta_mean           =   2.0000000000000E+01
(PID.TID 0000.0001) %MON dynstat_theta_sd             =   3.8014036363165E-13
(PID.TID 0000.0001) %MON dynstat_theta_del2           =   0.0000000000000E+00
(PID.TID 0000.0001) %MON dynstat_salt_max             =   3.0000000000000E+01
(PID.TID 0000.0001) %MON dynstat_salt_min             =   3.0000000000000E+01
(PID.TID 0000.0001) %MON dynstat_salt_mean            =   2.9999999999999E+01
(PID.TID 0000.0001) %MON dynstat_salt_sd              =   5.5777604757167E-13
(PID.TID 0000.0001) %MON dynstat_salt_del2            =   0.0000000000000E+00
(PID.TID 0000.0001) %MON trAdv_CFL_u_max              =   1.0592867428956E-02
(PID.TID 0000.0001) %MON trAdv_CFL_v_max              =   9.1025828914187E-03
(PID.TID 0000.0001) %MON trAdv_CFL_w_max              =   3.2520495308775E-09
(PID.TID 0000.0001) %MON advcfl_uvel_max              =   1.0593367095406E-02
(PID.TID 0000.0001) %MON advcfl_vvel_max              =   9.1147672308264E-03
(PID.TID 0000.0001) %MON advcfl_wvel_max              =   5.9207298050635E-09
(PID.TID 0000.0001) %MON advcfl_W_hf_max              =   0.0000000000000E+00
(PID.TID 0000.0001) %MON pe_b_mean                    =   2.1559097751152E-05
(PID.TID 0000.0001) %MON ke_max                       =   1.5618971771801E-02
(PID.TID 0000.0001) %MON ke_mean                      =   3.1612741246882E-03
(PID.TID 0000.0001) %MON ke_vol                       =   6.8893493896486E+15
(PID.TID 0000.0001) %MON vort_r_min                   =  -1.1203950157169E-06
(PID.TID 0000.0001) %MON vort_r_max                   =   3.7754272666437E-06
(PID.TID 0000.0001) %MON vort_a_mean                  =   1.0600000000000E-04
(PID.TID 0000.0001) %MON vort_a_sd                    =   3.5804918831064E-06
(PID.TID 0000.0001) %MON vort_p_mean                  =   1.1652272308690E-04
(PID.TID 0000.0001) %MON vort_p_sd                    =   4.1792837602004E-05
(PID.TID 0000.0001) %MON surfExpan_theta_mean         =  -9.7716994989443E-20
(PID.TID 0000.0001) %MON surfExpan_salt_mean          =  -1.4658086102928E-19
(PID.TID 0000.0001) // =======================================================
(PID.TID 0000.0001) // End MONITOR dynamic field statistics
(PID.TID 0000.0001) // =======================================================
 cg2d: Sum(rhs),rhsMax =  -8.22165642756530E-03  2.29398314822663E-01
 cg2d: Sum(rhs),rhsMax =  -8.22233401504206E-03  2.29401377484474E-01
 cg2d: Sum(rhs),rhsMax =  -8.22301150609655E-03  2.29404438408418E-01
 cg2d: Sum(rhs),rhsMax =  -8.22368889691027E-03  2.29407497598171E-01
 cg2d: Sum(rhs),rhsMax =  -8.22436618348650E-03  2.29410555057401E-01
 cg2d: Sum(rhs),rhsMax =  -8.22504336190111E-03  2.29413610789788E-01
 cg2d: Sum(rhs),rhsMax =  -8.22572042877630E-03  2.29416664799018E-01
 cg2d: Sum(rhs),rhsMax =  -8.22639737972815E-03  2.29419717088781E-01
 cg2d: Sum(rhs),rhsMax =  -8.22707421116082E-03  2.29422767662771E-01
 cg2d: Sum(rhs),rhsMax =  -8.22775091918785E-03  2.29425816524685E-01
 cg2d: Sum(rhs),rhsMax =  -8.22842750004338E-03  2.29428863678227E-01
 cg2d: Sum(rhs),rhsMax =  -8.22910394951270E-03  2.29431909127109E-01
 cg2d: Sum(rhs),rhsMax =  -8.22978026456828E-03  2.29434952875037E-01
 cg2d: Sum(rhs),rhsMax =  -8.23045644086508E-03  2.29437994925736E-01
 cg2d: Sum(rhs),rhsMax =  -8.23113247412758E-03  2.29441035282923E-01
 cg2d: Sum(rhs),rhsMax =  -8.23180836129626E-03  2.29444073950328E-01
 cg2d: Sum(rhs),rhsMax =  -8.23248409796278E-03  2.29447110931680E-01
 cg2d: Sum(rhs),rhsMax =  -8.23315968055427E-03  2.29450146230719E-01
 cg2d: Sum(rhs),rhsMax =  -8.23383510538155E-03  2.29453179851180E-01
 cg2d: Sum(rhs),rhsMax =  -8.23451036865306E-03  2.29456211796820E-01
 cg2d: Sum(rhs),rhsMax =  -8.23518546600263E-03  2.29459242071378E-01
 cg2d: Sum(rhs),rhsMax =  -8.23586039426957E-03  2.29462270678612E-01
 cg2d: Sum(rhs),rhsMax =  -8.23653514886048E-03  2.29465297622288E-01
 cg2d: Sum(rhs),rhsMax =  -8.23720972652385E-03  2.29468322906165E-01
 cg2d: Sum(rhs),rhsMax =  -8.23788412378288E-03  2.29471346534005E-01
 cg2d: Sum(rhs),rhsMax =  -8.23855833605629E-03  2.29474368509596E-01
 cg2d: Sum(rhs),rhsMax =  -8.23923236011065E-03  2.29477388836704E-01
 cg2d: Sum(rhs),rhsMax =  -8.23990619157007E-03  2.29480407519118E-01
 cg2d: Sum(rhs),rhsMax =  -8.24057982740862E-03  2.29483424560622E-01
 cg2d: Sum(rhs),rhsMax =  -8.24125326267282E-03  2.29486439965009E-01
 cg2d: Sum(rhs),rhsMax =  -8.24192649426835E-03  2.29489453736075E-01
 cg2d: Sum(rhs),rhsMax =  -8.24259951844062E-03  2.29492465877619E-01
 cg2d: Sum(rhs),rhsMax =  -8.24327233127432E-03  2.29495476393449E-01
 cg2d: Sum(rhs),rhsMax =  -8.24394492908848E-03  2.29498485287370E-01
 cg2d: Sum(rhs),rhsMax =  -8.24461730780288E-03  2.29501492563201E-01
 cg2d: Sum(rhs),rhsMax =  -8.24528946422123E-03  2.29504498224753E-01
 cg2d: Sum(rhs),rhsMax =  -8.24596139341720E-03  2.29507502275861E-01
 cg2d: Sum(rhs),rhsMax =  -8.24663309246865E-03  2.29510504720345E-01
 cg2d: Sum(rhs),rhsMax =  -8.24730455764178E-03  2.29513505562030E-01
 cg2d: Sum(rhs),rhsMax =  -8.24797578492537E-03  2.29516504804765E-01
 cg2d: Sum(rhs),rhsMax =  -8.24864677025681E-03  2.29519502452383E-01
 cg2d: Sum(rhs),rhsMax =  -8.24931751021382E-03  2.29522498508732E-01
 cg2d: Sum(rhs),rhsMax =  -8.24998800050869E-03  2.29525492977661E-01
 cg2d: Sum(rhs),rhsMax =  -8.25065823825733E-03  2.29528485863025E-01
 cg2d: Sum(rhs),rhsMax =  -8.25132821908971E-03  2.29531477168675E-01
 cg2d: Sum(rhs),rhsMax =  -8.25199793932203E-03  2.29534466898480E-01
 cg2d: Sum(rhs),rhsMax =  -8.25266739494964E-03  2.29537455056305E-01
 cg2d: Sum(rhs),rhsMax =  -8.25333658219483E-03  2.29540441646019E-01
 cg2d: Sum(rhs),rhsMax =  -8.25400549786719E-03  2.29543426671508E-01
 cg2d: Sum(rhs),rhsMax =  -8.25467413792061E-03  2.29546410136633E-01
 cg2d: Sum(rhs),rhsMax =  -8.25534249811948E-03  2.29549392045291E-01
 cg2d: Sum(rhs),rhsMax =  -8.25601057522644E-03  2.29552372401365E-01
 cg2d: Sum(rhs),rhsMax =  -8.25667836504892E-03  2.29555351208752E-01
 cg2d: Sum(rhs),rhsMax =  -8.25734586437360E-03  2.29558328471345E-01
 cg2d: Sum(rhs),rhsMax =  -8.25801306915365E-03  2.29561304193045E-01
 cg2d: Sum(rhs),rhsMax =  -8.25867997542768E-03  2.29564278377760E-01
 cg2d: Sum(rhs),rhsMax =  -8.25934657964530E-03  2.29567251029396E-01
 cg2d: Sum(rhs),rhsMax =  -8.26001287795531E-03  2.29570222151865E-01
 cg2d: Sum(rhs),rhsMax =  -8.26067886718274E-03  2.29573191749090E-01
 cg2d: Sum(rhs),rhsMax =  -8.26134454251438E-03  2.29576159824987E-01
 cg2d: Sum(rhs),rhsMax =  -8.26200990130159E-03  2.29579126383489E-01
 cg2d: Sum(rhs),rhsMax =  -8.26267493915846E-03  2.29582091428518E-01
 cg2d: Sum(rhs),rhsMax =  -8.26333965232854E-03  2.29585054964011E-01
 cg2d: Sum(rhs),rhsMax =  -8.26400403699159E-03  2.29588016993910E-01
 cg2d: Sum(rhs),rhsMax =  -8.26466809031358E-03  2.29590977522151E-01
 cg2d: Sum(rhs),rhsMax =  -8.26533180731935E-03  2.29593936552690E-01
 cg2d: Sum(rhs),rhsMax =  -8.26599518500761E-03  2.29596894089470E-01
 cg2d: Sum(rhs),rhsMax =  -8.26665821961346E-03  2.29599850136446E-01
 cg2d: Sum(rhs),rhsMax =  -8.26732090699508E-03  2.29602804697575E-01
 cg2d: Sum(rhs),rhsMax =  -8.26798324359633E-03  2.29605757776831E-01
 cg2d: Sum(rhs),rhsMax =  -8.26864522594662E-03  2.29608709378167E-01
 cg2d: Sum(rhs),rhsMax =  -8.26930685042268E-03  2.29611659505561E-01
(PID.TID 0000.0001)      cg2d_init_res =   3.02008734997896E-04
(PID.TID 0000.0001)      cg2d_iters(min,last) =      -1      67
(PID.TID 0000.0001)      cg2d_last_res =   9.65023508625843E-08
(PID.TID 0000.0001) // =======================================================
(PID.TID 0000.0001) // Begin MONITOR dynamic field statistics
(PID.TID 0000.0001) // =======================================================
(PID.TID 0000.0001) %MON time_tsnumber                =                 18792
(PID.TID 0000.0001) %MON time_secondsf                =   2.2550400000000E+07
(PID.TID 0000.0001) %MON dynstat_eta_max              =   3.8083813716329E-01
(PID.TID 0000.0001) %MON dynstat_eta_min              =  -1.1846219066036E-01
(PID.TID 0000.0001) %MON dynstat_eta_mean             =   9.4896624209761E-06
(PID.TID 0000.0001) %MON dynstat_eta_sd               =   1.4536010966610E-01
(PID.TID 0000.0001) %MON dynstat_eta_del2             =   3.6990956648060E-05
(PID.TID 0000.0001) %MON dynstat_uvel_max             =   1.7681495001530E-01
(PID.TID 0000.0001) %MON dynstat_uvel_min             =  -1.4241015444374E-01
(PID.TID 0000.0001) %MON dynstat_uvel_mean            =  -1.1378390818757E-08
(PID.TID 0000.0001) %MON dynstat_uvel_sd              =   5.9150341168149E-02
(PID.TID 0000.0001) %MON dynstat_uvel_del2            =   7.6832812888939E-05
(PID.TID 0000.0001) %MON dynstat_vvel_max             =   1.2510073415868E-01
(PID.TID 0000.0001) %MON dynstat_vvel_min             =  -1.5229256670681E-01
(PID.TID 0000.0001) %MON dynstat_vvel_mean            =   7.8425460184602E-08
(PID.TID 0000.0001) %MON dynstat_vvel_sd              =   5.4523803169786E-02
(PID.TID 0000.0001) %MON dynstat_vvel_del2            =   3.7202901461412E-05
(PID.TID 0000.0001) %MON dynstat_wvel_max             =   1.2307305129943E-08
(PID.TID 0000.0001) %MON dynstat_wvel_min             =  -3.4578012023121E-09
(PID.TID 0000.0001) %MON dynstat_wvel_mean            =  -4.6743899575732E-21
(PID.TID 0000.0001) %MON dynstat_wvel_sd              =   4.1541046891825E-09
(PID.TID 0000.0001) %MON dynstat_wvel_del2            =   1.1850861335152E-12
(PID.TID 0000.0001) %MON dynstat_theta_max            =   2.0000000000000E+01
(PID.TID 0000.0001) %MON dynstat_theta_min            =   2.0000000000000E+01
(PID.TID 0000.0001) %MON dynstat_theta_mean           =   2.0000000000000E+01
(PID.TID 0000.0001) %MON dynstat_theta_sd             =   3.8014036363165E-13
(PID.TID 0000.0001) %MON dynstat_theta_del2           =   0.0000000000000E+00
(PID.TID 0000.0001) %MON dynstat_salt_max             =   3.0000000000000E+01
(PID.TID 0000.0001) %MON dynstat_salt_min             =   3.0000000000000E+01
(PID.TID 0000.0001) %MON dynstat_salt_mean            =   2.9999999999999E+01
(PID.TID 0000.0001) %MON dynstat_salt_sd              =   5.5777604757167E-13
(PID.TID 0000.0001) %MON dynstat_salt_del2            =   0.0000000000000E+00
(PID.TID 0000.0001) %MON trAdv_CFL_u_max              =   1.0608405203234E-02
(PID.TID 0000.0001) %MON trAdv_CFL_v_max              =   9.1253387030661E-03
(PID.TID 0000.0001) %MON trAdv_CFL_w_max              =   3.2447932289708E-09
(PID.TID 0000.0001) %MON advcfl_uvel_max              =   1.0608897000918E-02
(PID.TID 0000.0001) %MON advcfl_vvel_max              =   9.1375540024086E-03
(PID.TID 0000.0001) %MON advcfl_wvel_max              =   5.9075064623728E-09
(PID.TID 0000.0001) %MON advcfl_W_hf_max              =   0.0000000000000E+00
(PID.TID 0000.0001) %MON pe_b_mean                    =   2.1662759551861E-05
(PID.TID 0000.0001) %MON ke_max                       =   1.5663575017877E-02
(PID.TID 0000.0001) %MON ke_mean                      =   3.1763020290810E-03
(PID.TID 0000.0001) %MON ke_vol                       =   6.8893493896486E+15
(PID.TID 0000.0001) %MON vort_r_min                   =  -1.1233638538339E-06
(PID.TID 0000.0001) %MON vort_r_max                   =   3.7801108226828E-06
(PID.TID 0000.0001) %MON vort_a_mean                  =   1.0600000000000E-04
(PID.TID 0000.0001) %MON vort_a_sd                    =   3.5807002591951E-06
(PID.TID 0000.0001) %MON vort_p_mean                  =   1.1652272308690E-04
(PID.TID 0000.0001) %MON vort_p_sd                    =   4.1792838337996E-05
(PID.TID 0000.0001) %MON surfExpan_theta_mean         =  -9.3474265365027E-20
(PID.TID 0000.0001) %MON surfExpan_salt_mean          =  -1.4020634529920E-19
(PID.TID 0000.0001) // =======================================================
(PID.TID 0000.0001) // End MONITOR dynamic field statistics
(PID.TID 0000.0001) // =======================================================
 cg2d: Sum(rhs),rhsMax =  -8.26996811302212E-03  2.29614608162989E-01
 cg2d: Sum(rhs),rhsMax =  -8.27062901029721E-03  2.29617555354425E-01
 cg2d: Sum(rhs),rhsMax =  -8.27128953802141E-03  2.29620501083852E-01
 cg2d: Sum(rhs),rhsMax =  -8.27194969313423E-03  2.29623445355261E-01
 cg2d: Sum(rhs),rhsMax =  -8.27260947151498E-03  2.29626388172639E-01
 cg2d: Sum(rhs),rhsMax =  -8.27326886926009E-03  2.29629329539984E-01
 cg2d: Sum(rhs),rhsMax =  -8.27392788358602E-03  2.29632269461288E-01
 cg2d: Sum(rhs),rhsMax =  -8.27458650983107E-03  2.29635207940561E-01
 cg2d: Sum(rhs),rhsMax =  -8.27524474434429E-03  2.29638144981810E-01
 cg2d: Sum(rhs),rhsMax =  -8.27590258421676E-03  2.29641080589033E-01
 cg2d: Sum(rhs),rhsMax =  -8.27656002544364E-03  2.29644014766261E-01
 cg2d: Sum(rhs),rhsMax =  -8.27721706440880E-03  2.29646947517503E-01
 cg2d: Sum(rhs),rhsMax =  -8.27787369691509E-03  2.29649878846776E-01
 cg2d: Sum(rhs),rhsMax =  -8.27852991973408E-03  2.29652808758117E-01
 cg2d: Sum(rhs),rhsMax =  -8.27918572889214E-03  2.29655737255548E-01
 cg2d: Sum(rhs),rhsMax =  -8.27984112157223E-03  2.29658664343101E-01
 cg2d: Sum(rhs),rhsMax =  -8.28049609340824E-03  2.29661590024822E-01
 cg2d: Sum(rhs),rhsMax =  -8.28115064050843E-03  2.29664514304744E-01
 cg2d: Sum(rhs),rhsMax =  -8.28180476008836E-03  2.29667437186916E-01
 cg2d: Sum(rhs),rhsMax =  -8.28245844795876E-03  2.29670358675383E-01
 cg2d: Sum(rhs),rhsMax =  -8.28311170036045E-03  2.29673278774201E-01
 cg2d: Sum(rhs),rhsMax =  -8.28376451400682E-03  2.29676197487421E-01
 cg2d: Sum(rhs),rhsMax =  -8.28441688495080E-03  2.29679114819104E-01
 cg2d: Sum(rhs),rhsMax =  -8.28506881012673E-03  2.29682030773320E-01
 cg2d: Sum(rhs),rhsMax =  -8.28572028524623E-03  2.29684945354128E-01
 cg2d: Sum(rhs),rhsMax =  -8.28637130661892E-03  2.29687858565605E-01
 cg2d: Sum(rhs),rhsMax =  -8.28702187166275E-03  2.29690770411821E-01
 cg2d: Sum(rhs),rhsMax =  -8.28767197586628E-03  2.29693680896855E-01
 cg2d: Sum(rhs),rhsMax =  -8.28832161567132E-03  2.29696590024788E-01
 cg2d: Sum(rhs),rhsMax =  -8.28897078820935E-03  2.29699497799711E-01
 cg2d: Sum(rhs),rhsMax =  -8.28961948915549E-03  2.29702404225708E-01
 cg2d: Sum(rhs),rhsMax =  -8.29026771517417E-03  2.29705309306872E-01
 cg2d: Sum(rhs),rhsMax =  -8.29091546286967E-03  2.29708213047300E-01
 cg2d: Sum(rhs),rhsMax =  -8.29156272815387E-03  2.29711115451095E-01
 cg2d: Sum(rhs),rhsMax =  -8.29220950813868E-03  2.29714016522353E-01
 cg2d: Sum(rhs),rhsMax =  -8.29285579887829E-03  2.29716916265188E-01
 cg2d: Sum(rhs),rhsMax =  -8.29350159672985E-03  2.29719814683706E-01
 cg2d: Sum(rhs),rhsMax =  -8.29414689867179E-03  2.29722711782026E-01
 cg2d: Sum(rhs),rhsMax =  -8.29479170078874E-03  2.29725607564261E-01
 cg2d: Sum(rhs),rhsMax =  -8.29543599998027E-03  2.29728502034540E-01
 cg2d: Sum(rhs),rhsMax =  -8.29607979177168E-03  2.29731395196973E-01
 cg2d: Sum(rhs),rhsMax =  -8.29672307402102E-03  2.29734287055702E-01
 cg2d: Sum(rhs),rhsMax =  -8.29736584201919E-03  2.29737177614853E-01
 cg2d: Sum(rhs),rhsMax =  -8.29800809310359E-03  2.29740066878557E-01
 cg2d: Sum(rhs),rhsMax =  -8.29864982312147E-03  2.29742954850967E-01
 cg2d: Sum(rhs),rhsMax =  -8.29929102925777E-03  2.29745841536200E-01
 cg2d: Sum(rhs),rhsMax =  -8.29993170780812E-03  2.29748726938429E-01
 cg2d: Sum(rhs),rhsMax =  -8.30057185521341E-03  2.29751611061785E-01
 cg2d: Sum(rhs),rhsMax =  -8.30121146763299E-03  2.29754493910426E-01
 cg2d: Sum(rhs),rhsMax =  -8.30185054250131E-03  2.29757375488507E-01
 cg2d: Sum(rhs),rhsMax =  -8.30248907583145E-03  2.29760255800186E-01
 cg2d: Sum(rhs),rhsMax =  -8.30312706424203E-03  2.29763134849627E-01
 cg2d: Sum(rhs),rhsMax =  -8.30376450459232E-03  2.29766012640995E-01
 cg2d: Sum(rhs),rhsMax =  -8.30440139288376E-03  2.29768889178457E-01
 cg2d: Sum(rhs),rhsMax =  -8.30503772615817E-03  2.29771764466190E-01
 cg2d: Sum(rhs),rhsMax =  -8.30567350147390E-03  2.29774638508361E-01
 cg2d: Sum(rhs),rhsMax =  -8.30630871483693E-03  2.29777511309157E-01
 cg2d: Sum(rhs),rhsMax =  -8.30694336319227E-03  2.29780382872759E-01
 cg2d: Sum(rhs),rhsMax =  -8.30757744256071E-03  2.29783253203350E-01
 cg2d: Sum(rhs),rhsMax =  -8.30821095057183E-03  2.29786122305120E-01
 cg2d: Sum(rhs),rhsMax =  -8.30884388326921E-03  2.29788990182256E-01
 cg2d: Sum(rhs),rhsMax =  -8.30947623748896E-03  2.29791856838964E-01
 cg2d: Sum(rhs),rhsMax =  -8.31010801025271E-03  2.29794722279434E-01
 cg2d: Sum(rhs),rhsMax =  -8.31073919760437E-03  2.29797586507869E-01
 cg2d: Sum(rhs),rhsMax =  -8.31136979665838E-03  2.29800449528474E-01
 cg2d: Sum(rhs),rhsMax =  -8.31199980420679E-03  2.29803311345453E-01
 cg2d: Sum(rhs),rhsMax =  -8.31262921688044E-03  2.29806171963025E-01
 cg2d: Sum(rhs),rhsMax =  -8.31325803143233E-03  2.29809031385401E-01
 cg2d: Sum(rhs),rhsMax =  -8.31388624475331E-03  2.29811889616799E-01
 cg2d: Sum(rhs),rhsMax =  -8.31451385358476E-03  2.29814746661436E-01
 cg2d: Sum(rhs),rhsMax =  -8.31514085468854E-03  2.29817602523536E-01
 cg2d: Sum(rhs),rhsMax =  -8.31576724495811E-03  2.29820457207329E-01
(PID.TID 0000.0001)      cg2d_init_res =   2.99858039296972E-04
(PID.TID 0000.0001)      cg2d_iters(min,last) =      -1      67
(PID.TID 0000.0001)      cg2d_last_res =   9.61568298654583E-08
(PID.TID 0000.0001) // =======================================================
(PID.TID 0000.0001) // Begin MONITOR dynamic field statistics
(PID.TID 0000.0001) // =======================================================
(PID.TID 0000.0001) %MON time_tsnumber                =                 18864
(PID.TID 0000.0001) %MON time_secondsf                =   2.2636800000000E+07
(PID.TID 0000.0001) %MON dynstat_eta_max              =   3.8189408055189E-01
(PID.TID 0000.0001) %MON dynstat_eta_min              =  -1.1869360137807E-01
(PID.TID 0000.0001) %MON dynstat_eta_mean             =   9.5516081112053E-06
(PID.TID 0000.0001) %MON dynstat_eta_sd               =   1.4570809058463E-01
(PID.TID 0000.0001) %MON dynstat_eta_del2             =   3.7065787746137E-05
(PID.TID 0000.0001) %MON dynstat_uvel_max             =   1.7706396490138E-01
(PID.TID 0000.0001) %MON dynstat_uvel_min             =  -1.4278708266613E-01
(PID.TID 0000.0001) %MON dynstat_uvel_mean            =  -1.2500117638269E-08
(PID.TID 0000.0001) %MON dynstat_uvel_sd              =   5.9285933323529E-02
(PID.TID 0000.0001) %MON dynstat_uvel_del2            =   7.6874110504354E-05
(PID.TID 0000.0001) %MON dynstat_vvel_max             =   1.2550761367760E-01
(PID.TID 0000.0001) %MON dynstat_vvel_min             =  -1.5267387254076E-01
(PID.TID 0000.0001) %MON dynstat_vvel_mean            =   7.9893022988877E-08
(PID.TID 0000.0001) %MON dynstat_vvel_sd              =   5.4657300638595E-02
(PID.TID 0000.0001) %MON dynstat_vvel_del2            =   3.7208355662387E-05
(PID.TID 0000.0001) %MON dynstat_wvel_max             =   1.2277822400210E-08
(PID.TID 0000.0001) %MON dynstat_wvel_min             =  -3.4771704772720E-09
(PID.TID 0000.0001) %MON dynstat_wvel_mean            =   5.3187913332901E-21
(PID.TID 0000.0001) %MON dynstat_wvel_sd              =   4.1456205479730E-09
(PID.TID 0000.0001) %MON dynstat_wvel_del2            =   1.1796215083447E-12
(PID.TID 0000.0001) %MON dynstat_theta_max            =   2.0000000000000E+01
(PID.TID 0000.0001) %MON dynstat_theta_min            =   2.0000000000000E+01
(PID.TID 0000.0001) %MON dynstat_theta_mean           =   2.0000000000000E+01
(PID.TID 0000.0001) %MON dynstat_theta_sd             =   3.8014036363165E-13
(PID.TID 0000.0001) %MON dynstat_theta_del2           =   0.0000000000000E+00
(PID.TID 0000.0001) %MON dynstat_salt_max             =   3.0000000000000E+01
(PID.TID 0000.0001) %MON dynstat_salt_min             =   3.0000000000000E+01
(PID.TID 0000.0001) %MON dynstat_salt_mean            =   2.9999999999999E+01
(PID.TID 0000.0001) %MON dynstat_salt_sd              =   5.5777604757167E-13
(PID.TID 0000.0001) %MON dynstat_salt_del2            =   0.0000000000000E+00
(PID.TID 0000.0001) %MON trAdv_CFL_u_max              =   1.0623353767118E-02
(PID.TID 0000.0001) %MON trAdv_CFL_v_max              =   9.1481860125120E-03
(PID.TID 0000.0001) %MON trAdv_CFL_w_max              =   3.2370280952404E-09
(PID.TID 0000.0001) %MON advcfl_uvel_max              =   1.0623837894083E-02
(PID.TID 0000.0001) %MON advcfl_vvel_max              =   9.1604323524455E-03
(PID.TID 0000.0001) %MON advcfl_wvel_max              =   5.8933547521010E-09
(PID.TID 0000.0001) %MON advcfl_W_hf_max              =   0.0000000000000E+00
(PID.TID 0000.0001) %MON pe_b_mean                    =   2.1766601658303E-05
(PID.TID 0000.0001) %MON ke_max                       =   1.5706526380159E-02
(PID.TID 0000.0001) %MON ke_mean                      =   3.1913375820556E-03
(PID.TID 0000.0001) %MON ke_vol                       =   6.8893493896486E+15
(PID.TID 0000.0001) %MON vort_r_min                   =  -1.1263239156133E-06
(PID.TID 0000.0001) %MON vort_r_max                   =   3.7845894646348E-06
(PID.TID 0000.0001) %MON vort_a_mean                  =   1.0600000000000E-04
(PID.TID 0000.0001) %MON vort_a_sd                    =   3.5809079066510E-06
(PID.TID 0000.0001) %MON vort_p_mean                  =   1.1652272308690E-04
(PID.TID 0000.0001) %MON vort_p_sd                    =   4.1792839090640E-05
(PID.TID 0000.0001) %MON surfExpan_theta_mean         =   1.0641972241703E-19
(PID.TID 0000.0001) %MON surfExpan_salt_mean          =   1.5962437297882E-19
(PID.TID 0000.0001) // =======================================================
(PID.TID 0000.0001) // End MONITOR dynamic field statistics
(PID.TID 0000.0001) // =======================================================
 cg2d: Sum(rhs),rhsMax =  -8.31639302128614E-03  2.29823310717043E-01
 cg2d: Sum(rhs),rhsMax =  -8.31701818029409E-03  2.29826163056913E-01
 cg2d: Sum(rhs),rhsMax =  -8.31764271883293E-03  2.29829014231169E-01
 cg2d: Sum(rhs),rhsMax =  -8.31826663383632E-03  2.29831864244057E-01
 cg2d: Sum(rhs),rhsMax =  -8.31888992221706E-03  2.29834713099810E-01
 cg2d: Sum(rhs),rhsMax =  -8.31951258135500E-03  2.29837560802687E-01
 cg2d: Sum(rhs),rhsMax =  -8.32013460760816E-03  2.29840407356921E-01
 cg2d: Sum(rhs),rhsMax =  -8.32075599759539E-03  2.29843252766773E-01
 cg2d: Sum(rhs),rhsMax =  -8.32137674902448E-03  2.29846097036492E-01
 cg2d: Sum(rhs),rhsMax =  -8.32199685847789E-03  2.29848940170340E-01
 cg2d: Sum(rhs),rhsMax =  -8.32261632338216E-03  2.29851782172568E-01
 cg2d: Sum(rhs),rhsMax =  -8.32323514003750E-03  2.29854623047448E-01
 cg2d: Sum(rhs),rhsMax =  -8.32385330610026E-03  2.29857462799238E-01
 cg2d: Sum(rhs),rhsMax =  -8.32447081807868E-03  2.29860301432214E-01
 cg2d: Sum(rhs),rhsMax =  -8.32508767328215E-03  2.29863138950640E-01
 cg2d: Sum(rhs),rhsMax =  -8.32570386902931E-03  2.29865975358800E-01
 cg2d: Sum(rhs),rhsMax =  -8.32631940210918E-03  2.29868810660958E-01
 cg2d: Sum(rhs),rhsMax =  -8.32693426989670E-03  2.29871644861410E-01
 cg2d: Sum(rhs),rhsMax =  -8.32754846898467E-03  2.29874477964423E-01
 cg2d: Sum(rhs),rhsMax =  -8.32816199722647E-03  2.29877309974296E-01
 cg2d: Sum(rhs),rhsMax =  -8.32877485143015E-03  2.29880140895305E-01
 cg2d: Sum(rhs),rhsMax =  -8.32938702871376E-03  2.29882970731756E-01
 cg2d: Sum(rhs),rhsMax =  -8.32999852662693E-03  2.29885799487933E-01
 cg2d: Sum(rhs),rhsMax =  -8.33060934189429E-03  2.29888627168138E-01
 cg2d: Sum(rhs),rhsMax =  -8.33121947275100E-03  2.29891453776669E-01
 cg2d: Sum(rhs),rhsMax =  -8.33182891523174E-03  2.29894279317823E-01
 cg2d: Sum(rhs),rhsMax =  -8.33243766781718E-03  2.29897103795912E-01
 cg2d: Sum(rhs),rhsMax =  -8.33304572671134E-03  2.29899927215243E-01
 cg2d: Sum(rhs),rhsMax =  -8.33365309006224E-03  2.29902749580126E-01
 cg2d: Sum(rhs),rhsMax =  -8.33425975490381E-03  2.29905570894868E-01
 cg2d: Sum(rhs),rhsMax =  -8.33486571864230E-03  2.29908391163803E-01
 cg2d: Sum(rhs),rhsMax =  -8.33547097869577E-03  2.29911210391230E-01
 cg2d: Sum(rhs),rhsMax =  -8.33607553314464E-03  2.29914028581478E-01
 cg2d: Sum(rhs),rhsMax =  -8.33667937846059E-03  2.29916845738875E-01
 cg2d: Sum(rhs),rhsMax =  -8.33728251284540E-03  2.29919661867744E-01
 cg2d: Sum(rhs),rhsMax =  -8.33788493388123E-03  2.29922476972415E-01
 cg2d: Sum(rhs),rhsMax =  -8.33848663870987E-03  2.29925291057215E-01
 cg2d: Sum(rhs),rhsMax =  -8.33908762506753E-03  2.29928104126486E-01
 cg2d: Sum(rhs),rhsMax =  -8.33968789051092E-03  2.29930916184560E-01
 cg2d: Sum(rhs),rhsMax =  -8.34028743255036E-03  2.29933727235783E-01
 cg2d: Sum(rhs),rhsMax =  -8.34088624910497E-03  2.29936537284486E-01
 cg2d: Sum(rhs),rhsMax =  -8.34148433805560E-03  2.29939346335027E-01
 cg2d: Sum(rhs),rhsMax =  -8.34208169661059E-03  2.29942154391739E-01
 cg2d: Sum(rhs),rhsMax =  -8.34267832313875E-03  2.29944961458983E-01
 cg2d: Sum(rhs),rhsMax =  -8.34327421450474E-03  2.29947767541107E-01
 cg2d: Sum(rhs),rhsMax =  -8.34386936962650E-03  2.29950572642465E-01
 cg2d: Sum(rhs),rhsMax =  -8.34446378550467E-03  2.29953376767417E-01
 cg2d: Sum(rhs),rhsMax =  -8.34505746046307E-03  2.29956179920320E-01
 cg2d: Sum(rhs),rhsMax =  -8.34565039179878E-03  2.29958982105537E-01
 cg2d: Sum(rhs),rhsMax =  -8.34624257836138E-03  2.29961783327436E-01
 cg2d: Sum(rhs),rhsMax =  -8.34683401732473E-03  2.29964583590376E-01
 cg2d: Sum(rhs),rhsMax =  -8.34742470728922E-03  2.29967382898733E-01
 cg2d: Sum(rhs),rhsMax =  -8.34801464593444E-03  2.29970181256875E-01
 cg2d: Sum(rhs),rhsMax =  -8.34860383138813E-03  2.29972978669177E-01
 cg2d: Sum(rhs),rhsMax =  -8.34919226176471E-03  2.29975775140017E-01
 cg2d: Sum(rhs),rhsMax =  -8.34977993505845E-03  2.29978570673773E-01
 cg2d: Sum(rhs),rhsMax =  -8.35036685001869E-03  2.29981365274827E-01
 cg2d: Sum(rhs),rhsMax =  -8.35095300438273E-03  2.29984158947561E-01
 cg2d: Sum(rhs),rhsMax =  -8.35153839624509E-03  2.29986951696358E-01
 cg2d: Sum(rhs),rhsMax =  -8.35212302413613E-03  2.29989743525611E-01
 cg2d: Sum(rhs),rhsMax =  -8.35270688563992E-03  2.29992534439710E-01
 cg2d: Sum(rhs),rhsMax =  -8.35328998042605E-03  2.29995324443041E-01
 cg2d: Sum(rhs),rhsMax =  -8.35387230591220E-03  2.29998113540008E-01
 cg2d: Sum(rhs),rhsMax =  -8.35445386130023E-03  2.30000901735001E-01
 cg2d: Sum(rhs),rhsMax =  -8.35503464411467E-03  2.30003689032426E-01
 cg2d: Sum(rhs),rhsMax =  -8.35561465400266E-03  2.30006475436680E-01
 cg2d: Sum(rhs),rhsMax =  -8.35619388834861E-03  2.30009260952159E-01
 cg2d: Sum(rhs),rhsMax =  -8.35677234660005E-03  2.30012045583286E-01
 cg2d: Sum(rhs),rhsMax =  -8.35735002704879E-03  2.30014829334462E-01
 cg2d: Sum(rhs),rhsMax =  -8.35792692822582E-03  2.30017612210089E-01
 cg2d: Sum(rhs),rhsMax =  -8.35850304910865E-03  2.30020394214589E-01
 cg2d: Sum(rhs),rhsMax =  -8.35907838846841E-03  2.30023175352373E-01
(PID.TID 0000.0001)      cg2d_init_res =   2.97923338798071E-04
(PID.TID 0000.0001)      cg2d_iters(min,last) =      -1      67
(PID.TID 0000.0001)      cg2d_last_res =   9.60744864558497E-08
(PID.TID 0000.0001) // =======================================================
(PID.TID 0000.0001) // Begin MONITOR dynamic field statistics
(PID.TID 0000.0001) // =======================================================
(PID.TID 0000.0001) %MON time_tsnumber                =                 18936
(PID.TID 0000.0001) %MON time_secondsf                =   2.2723200000000E+07
(PID.TID 0000.0001) %MON dynstat_eta_max              =   3.8294796699537E-01
(PID.TID 0000.0001) %MON dynstat_eta_min              =  -1.1892441183871E-01
(PID.TID 0000.0001) %MON dynstat_eta_mean             =   9.6097591991777E-06
(PID.TID 0000.0001) %MON dynstat_eta_sd               =   1.4605578502455E-01
(PID.TID 0000.0001) %MON dynstat_eta_del2             =   3.7139969516059E-05
(PID.TID 0000.0001) %MON dynstat_uvel_max             =   1.7730349053777E-01
(PID.TID 0000.0001) %MON dynstat_uvel_min             =  -1.4316705669299E-01
(PID.TID 0000.0001) %MON dynstat_uvel_mean            =  -1.3070368997096E-08
(PID.TID 0000.0001) %MON dynstat_uvel_sd              =   5.9422595309765E-02
(PID.TID 0000.0001) %MON dynstat_uvel_del2            =   7.6913426602304E-05
(PID.TID 0000.0001) %MON dynstat_vvel_max             =   1.2591119174649E-01
(PID.TID 0000.0001) %MON dynstat_vvel_min             =  -1.5305664105825E-01
(PID.TID 0000.0001) %MON dynstat_vvel_mean            =   8.1402176391570E-08
(PID.TID 0000.0001) %MON dynstat_vvel_sd              =   5.4789118814455E-02
(PID.TID 0000.0001) %MON dynstat_vvel_del2            =   3.7217169990767E-05
(PID.TID 0000.0001) %MON dynstat_wvel_max             =   1.2246044873027E-08
(PID.TID 0000.0001) %MON dynstat_wvel_min             =  -3.5741866882017E-09
(PID.TID 0000.0001) %MON dynstat_wvel_mean            =   6.1225373176260E-21
(PID.TID 0000.0001) %MON dynstat_wvel_sd              =   4.1364695309168E-09
(PID.TID 0000.0001) %MON dynstat_wvel_del2            =   1.1748595845718E-12
(PID.TID 0000.0001) %MON dynstat_theta_max            =   2.0000000000000E+01
(PID.TID 0000.0001) %MON dynstat_theta_min            =   2.0000000000000E+01
(PID.TID 0000.0001) %MON dynstat_theta_mean           =   2.0000000000000E+01
(PID.TID 0000.0001) %MON dynstat_theta_sd             =   3.8014036363165E-13
(PID.TID 0000.0001) %MON dynstat_theta_del2           =   0.0000000000000E+00
(PID.TID 0000.0001) %MON dynstat_salt_max             =   3.0000000000000E+01
(PID.TID 0000.0001) %MON dynstat_salt_min             =   3.0000000000000E+01
(PID.TID 0000.0001) %MON dynstat_salt_mean            =   2.9999999999999E+01
(PID.TID 0000.0001) %MON dynstat_salt_sd              =   5.5777604757167E-13
(PID.TID 0000.0001) %MON dynstat_salt_del2            =   0.0000000000000E+00
(PID.TID 0000.0001) %MON trAdv_CFL_u_max              =   1.0637732661044E-02
(PID.TID 0000.0001) %MON trAdv_CFL_v_max              =   9.1711210376033E-03
(PID.TID 0000.0001) %MON trAdv_CFL_w_max              =   3.2286593613865E-09
(PID.TID 0000.0001) %MON advcfl_uvel_max              =   1.0638209432266E-02
(PID.TID 0000.0001) %MON advcfl_vvel_max              =   9.1833984634948E-03
(PID.TID 0000.0001) %MON advcfl_wvel_max              =   5.8781015390530E-09
(PID.TID 0000.0001) %MON advcfl_W_hf_max              =   0.0000000000000E+00
(PID.TID 0000.0001) %MON pe_b_mean                    =   2.1870606261959E-05
(PID.TID 0000.0001) %MON ke_max                       =   1.5747890469687E-02
(PID.TID 0000.0001) %MON ke_mean                      =   3.2063807621208E-03
(PID.TID 0000.0001) %MON ke_vol                       =   6.8893493896486E+15
(PID.TID 0000.0001) %MON vort_r_min                   =  -1.1292754634617E-06
(PID.TID 0000.0001) %MON vort_r_max                   =   3.7888734999289E-06
(PID.TID 0000.0001) %MON vort_a_mean                  =   1.0600000000000E-04
(PID.TID 0000.0001) %MON vort_a_sd                    =   3.5811150183508E-06
(PID.TID 0000.0001) %MON vort_p_mean                  =   1.1652272308690E-04
(PID.TID 0000.0001) %MON vort_p_sd                    =   4.1792839828137E-05
(PID.TID 0000.0001) %MON surfExpan_theta_mean         =   1.2246851434207E-19
(PID.TID 0000.0001) %MON surfExpan_salt_mean          =   1.8369535028897E-19
(PID.TID 0000.0001) // =======================================================
(PID.TID 0000.0001) // End MONITOR dynamic field statistics
(PID.TID 0000.0001) // =======================================================
 cg2d: Sum(rhs),rhsMax =  -8.35965294490820E-03  2.30025955627862E-01
 cg2d: Sum(rhs),rhsMax =  -8.36022671741998E-03  2.30028735045466E-01
 cg2d: Sum(rhs),rhsMax =  -8.36079970477645E-03  2.30031513609609E-01
 cg2d: Sum(rhs),rhsMax =  -8.36137190593683E-03  2.30034291324718E-01
 cg2d: Sum(rhs),rhsMax =  -8.36194332009573E-03  2.30037068195211E-01
 cg2d: Sum(rhs),rhsMax =  -8.36251394579440E-03  2.30039844225524E-01
 cg2d: Sum(rhs),rhsMax =  -8.36308378237250E-03  2.30042619420080E-01
 cg2d: Sum(rhs),rhsMax =  -8.36365282908542E-03  2.30045393783311E-01
 cg2d: Sum(rhs),rhsMax =  -8.36422108492710E-03  2.30048167319647E-01
 cg2d: Sum(rhs),rhsMax =  -8.36478854959135E-03  2.30050940033531E-01
 cg2d: Sum(rhs),rhsMax =  -8.36535522131885E-03  2.30053711929391E-01
 cg2d: Sum(rhs),rhsMax =  -8.36592110014557E-03  2.30056483011675E-01
 cg2d: Sum(rhs),rhsMax =  -8.36648618501805E-03  2.30059253284811E-01
 cg2d: Sum(rhs),rhsMax =  -8.36705047621274E-03  2.30062022753259E-01
 cg2d: Sum(rhs),rhsMax =  -8.36761397216127E-03  2.30064791421452E-01
 cg2d: Sum(rhs),rhsMax =  -8.36817667304274E-03  2.30067559293836E-01
 cg2d: Sum(rhs),rhsMax =  -8.36873857823815E-03  2.30070326374867E-01
 cg2d: Sum(rhs),rhsMax =  -8.36929968672566E-03  2.30073092668989E-01
 cg2d: Sum(rhs),rhsMax =  -8.36985999917893E-03  2.30075858180658E-01
 cg2d: Sum(rhs),rhsMax =  -8.37041951386051E-03  2.30078622914323E-01
 cg2d: Sum(rhs),rhsMax =  -8.37097823260422E-03  2.30081386874451E-01
 cg2d: Sum(rhs),rhsMax =  -8.37153615372412E-03  2.30084150065486E-01
 cg2d: Sum(rhs),rhsMax =  -8.37209327793758E-03  2.30086912491902E-01
 cg2d: Sum(rhs),rhsMax =  -8.37264960444522E-03  2.30089674158144E-01
 cg2d: Sum(rhs),rhsMax =  -8.37320513333219E-03  2.30092435068689E-01
 cg2d: Sum(rhs),rhsMax =  -8.37375986501314E-03  2.30095195227995E-01
 cg2d: Sum(rhs),rhsMax =  -8.37431379928159E-03  2.30097954640535E-01
 cg2d: Sum(rhs),rhsMax =  -8.37486693660817E-03  2.30100713310772E-01
 cg2d: Sum(rhs),rhsMax =  -8.37541927718127E-03  2.30103471243175E-01
 cg2d: Sum(rhs),rhsMax =  -8.37597082080495E-03  2.30106228442222E-01
 cg2d: Sum(rhs),rhsMax =  -8.37652156834049E-03  2.30108984912378E-01
 cg2d: Sum(rhs),rhsMax =  -8.37707151987867E-03  2.30111740658130E-01
 cg2d: Sum(rhs),rhsMax =  -8.37762067557681E-03  2.30114495683947E-01
 cg2d: Sum(rhs),rhsMax =  -8.37816903656998E-03  2.30117249994306E-01
 cg2d: Sum(rhs),rhsMax =  -8.37871660355077E-03  2.30120003593694E-01
 cg2d: Sum(rhs),rhsMax =  -8.37926337645497E-03  2.30122756486585E-01
 cg2d: Sum(rhs),rhsMax =  -8.37980935643118E-03  2.30125508677476E-01
 cg2d: Sum(rhs),rhsMax =  -8.38035454399804E-03  2.30128260170840E-01
 cg2d: Sum(rhs),rhsMax =  -8.38089894047657E-03  2.30131010971167E-01
 cg2d: Sum(rhs),rhsMax =  -8.38144254567794E-03  2.30133761082940E-01
 cg2d: Sum(rhs),rhsMax =  -8.38198536150244E-03  2.30136510510663E-01
 cg2d: Sum(rhs),rhsMax =  -8.38252738841869E-03  2.30139259258816E-01
 cg2d: Sum(rhs),rhsMax =  -8.38306862816651E-03  2.30142007331891E-01
 cg2d: Sum(rhs),rhsMax =  -8.38360908119339E-03  2.30144754734391E-01
 cg2d: Sum(rhs),rhsMax =  -8.38414874888087E-03  2.30147501470806E-01
 cg2d: Sum(rhs),rhsMax =  -8.38468763268156E-03  2.30150247545638E-01
 cg2d: Sum(rhs),rhsMax =  -8.38522573381869E-03  2.30152992963379E-01
 cg2d: Sum(rhs),rhsMax =  -8.38576305395496E-03  2.30155737728541E-01
 cg2d: Sum(rhs),rhsMax =  -8.38629959426055E-03  2.30158481845614E-01
 cg2d: Sum(rhs),rhsMax =  -8.38683535625354E-03  2.30161225319103E-01
 cg2d: Sum(rhs),rhsMax =  -8.38737034144178E-03  2.30163968153522E-01
 cg2d: Sum(rhs),rhsMax =  -8.38790455169724E-03  2.30166710353366E-01
 cg2d: Sum(rhs),rhsMax =  -8.38843798919538E-03  2.30169451923150E-01
 cg2d: Sum(rhs),rhsMax =  -8.38897065472038E-03  2.30172192867380E-01
 cg2d: Sum(rhs),rhsMax =  -8.38950255067547E-03  2.30174933190568E-01
 cg2d: Sum(rhs),rhsMax =  -8.39003367937152E-03  2.30177672897227E-01
 cg2d: Sum(rhs),rhsMax =  -8.39056404229419E-03  2.30180411991863E-01
 cg2d: Sum(rhs),rhsMax =  -8.39109364164283E-03  2.30183150479000E-01
 cg2d: Sum(rhs),rhsMax =  -8.39162247983503E-03  2.30185888363148E-01
 cg2d: Sum(rhs),rhsMax =  -8.39215055891580E-03  2.30188625648824E-01
 cg2d: Sum(rhs),rhsMax =  -8.39267788110039E-03  2.30191362340546E-01
 cg2d: Sum(rhs),rhsMax =  -8.39320444921777E-03  2.30194098442837E-01
 cg2d: Sum(rhs),rhsMax =  -8.39373026589688E-03  2.30196833960216E-01
 cg2d: Sum(rhs),rhsMax =  -8.39425533274108E-03  2.30199568897204E-01
 cg2d: Sum(rhs),rhsMax =  -8.39477965313750E-03  2.30202303258325E-01
 cg2d: Sum(rhs),rhsMax =  -8.39530322929318E-03  2.30205037048104E-01
 cg2d: Sum(rhs),rhsMax =  -8.39582606365830E-03  2.30207770271067E-01
 cg2d: Sum(rhs),rhsMax =  -8.39634816006116E-03  2.30210502931738E-01
 cg2d: Sum(rhs),rhsMax =  -8.39686533935116E-03  2.30213349679388E-01
 cg2d: Sum(rhs),rhsMax =  -8.39737638378002E-03  2.30216343964688E-01
 cg2d: Sum(rhs),rhsMax =  -8.39788670552191E-03  2.30219337487720E-01
 cg2d: Sum(rhs),rhsMax =  -8.39839630791121E-03  2.30222330252822E-01
(PID.TID 0000.0001)      cg2d_init_res =   2.96188998933177E-04
(PID.TID 0000.0001)      cg2d_iters(min,last) =      -1      67
(PID.TID 0000.0001)      cg2d_last_res =   9.62952729349447E-08
(PID.TID 0000.0001) // =======================================================
(PID.TID 0000.0001) // Begin MONITOR dynamic field statistics
(PID.TID 0000.0001) // =======================================================
(PID.TID 0000.0001) %MON time_tsnumber                =                 19008
(PID.TID 0000.0001) %MON time_secondsf                =   2.2809600000000E+07
(PID.TID 0000.0001) %MON dynstat_eta_max              =   3.8399961310346E-01
(PID.TID 0000.0001) %MON dynstat_eta_min              =  -1.1915413252308E-01
(PID.TID 0000.0001) %MON dynstat_eta_mean             =   9.6632492639817E-06
(PID.TID 0000.0001) %MON dynstat_eta_sd               =   1.4640311857540E-01
(PID.TID 0000.0001) %MON dynstat_eta_del2             =   3.7213539411409E-05
(PID.TID 0000.0001) %MON dynstat_uvel_max             =   1.7753399101021E-01
(PID.TID 0000.0001) %MON dynstat_uvel_min             =  -1.4354915117387E-01
(PID.TID 0000.0001) %MON dynstat_uvel_mean            =  -1.3155907422400E-08
(PID.TID 0000.0001) %MON dynstat_uvel_sd              =   5.9560204803690E-02
(PID.TID 0000.0001) %MON dynstat_uvel_del2            =   7.6950998351888E-05
(PID.TID 0000.0001) %MON dynstat_vvel_max             =   1.2631010545015E-01
(PID.TID 0000.0001) %MON dynstat_vvel_min             =  -1.5344076500598E-01
(PID.TID 0000.0001) %MON dynstat_vvel_mean            =   8.2840262059191E-08
(PID.TID 0000.0001) %MON dynstat_vvel_sd              =   5.4919390445395E-02
(PID.TID 0000.0001) %MON dynstat_vvel_del2            =   3.7229475301220E-05
(PID.TID 0000.0001) %MON dynstat_wvel_max             =   1.2211574431858E-08
(PID.TID 0000.0001) %MON dynstat_wvel_min             =  -3.6754366515379E-09
(PID.TID 0000.0001) %MON dynstat_wvel_mean            =   1.1004268824561E-20
(PID.TID 0000.0001) %MON dynstat_wvel_sd              =   4.1266591289109E-09
(PID.TID 0000.0001) %MON dynstat_wvel_del2            =   1.1707740323623E-12
(PID.TID 0000.0001) %MON dynstat_theta_max            =   2.0000000000000E+01
(PID.TID 0000.0001) %MON dynstat_theta_min            =   2.0000000000000E+01
(PID.TID 0000.0001) %MON dynstat_theta_mean           =   2.0000000000000E+01
(PID.TID 0000.0001) %MON dynstat_theta_sd             =   3.8014036363165E-13
(PID.TID 0000.0001) %MON dynstat_theta_del2           =   0.0000000000000E+00
(PID.TID 0000.0001) %MON dynstat_salt_max             =   3.0000000000000E+01
(PID.TID 0000.0001) %MON dynstat_salt_min             =   3.0000000000000E+01
(PID.TID 0000.0001) %MON dynstat_salt_mean            =   2.9999999999999E+01
(PID.TID 0000.0001) %MON dynstat_salt_sd              =   5.5777604757167E-13
(PID.TID 0000.0001) %MON dynstat_salt_del2            =   0.0000000000000E+00
(PID.TID 0000.0001) %MON trAdv_CFL_u_max              =   1.0651569618603E-02
(PID.TID 0000.0001) %MON trAdv_CFL_v_max              =   9.1941373934711E-03
(PID.TID 0000.0001) %MON trAdv_CFL_w_max              =   3.2195821486653E-09
(PID.TID 0000.0001) %MON advcfl_uvel_max              =   1.0652039460613E-02
(PID.TID 0000.0001) %MON advcfl_vvel_max              =   9.2064459003589E-03
(PID.TID 0000.0001) %MON advcfl_wvel_max              =   5.8615557272919E-09
(PID.TID 0000.0001) %MON advcfl_W_hf_max              =   0.0000000000000E+00
(PID.TID 0000.0001) %MON pe_b_mean                    =   2.1974750412420E-05
(PID.TID 0000.0001) %MON ke_max                       =   1.5787756184825E-02
(PID.TID 0000.0001) %MON ke_mean                      =   3.2214313526971E-03
(PID.TID 0000.0001) %MON ke_vol                       =   6.8893493896486E+15
(PID.TID 0000.0001) %MON vort_r_min                   =  -1.1322191165530E-06
(PID.TID 0000.0001) %MON vort_r_max                   =   3.7929761085753E-06
(PID.TID 0000.0001) %MON vort_a_mean                  =   1.0600000000000E-04
(PID.TID 0000.0001) %MON vort_a_sd                    =   3.5813217886413E-06
(PID.TID 0000.0001) %MON vort_p_mean                  =   1.1652272308690E-04
(PID.TID 0000.0001) %MON vort_p_sd                    =   4.1792840472100E-05
(PID.TID 0000.0001) %MON surfExpan_theta_mean         =   2.2008413856788E-19
(PID.TID 0000.0001) %MON surfExpan_salt_mean          =   3.3013978711299E-19
(PID.TID 0000.0001) // =======================================================
(PID.TID 0000.0001) // End MONITOR dynamic field statistics
(PID.TID 0000.0001) // =======================================================
 cg2d: Sum(rhs),rhsMax =  -8.39890519337221E-03  2.30225322264328E-01
 cg2d: Sum(rhs),rhsMax =  -8.39941336583782E-03  2.30228313526580E-01
 cg2d: Sum(rhs),rhsMax =  -8.39992082909504E-03  2.30231304043924E-01
 cg2d: Sum(rhs),rhsMax =  -8.40042758584184E-03  2.30234293820704E-01
 cg2d: Sum(rhs),rhsMax =  -8.40093363967686E-03  2.30237282861261E-01
 cg2d: Sum(rhs),rhsMax =  -8.40143899470466E-03  2.30240271169947E-01
 cg2d: Sum(rhs),rhsMax =  -8.40194365437157E-03  2.30243258751108E-01
 cg2d: Sum(rhs),rhsMax =  -8.40244762219539E-03  2.30246245609095E-01
 cg2d: Sum(rhs),rhsMax =  -8.40295090270174E-03  2.30249231748265E-01
 cg2d: Sum(rhs),rhsMax =  -8.40345349893473E-03  2.30252217172967E-01
 cg2d: Sum(rhs),rhsMax =  -8.40395541534908E-03  2.30255201887555E-01
 cg2d: Sum(rhs),rhsMax =  -8.40445665586994E-03  2.30258185896396E-01
 cg2d: Sum(rhs),rhsMax =  -8.40495722512318E-03  2.30261169203838E-01
 cg2d: Sum(rhs),rhsMax =  -8.40545712663402E-03  2.30264151814249E-01
 cg2d: Sum(rhs),rhsMax =  -8.40595636531974E-03  2.30267133731988E-01
 cg2d: Sum(rhs),rhsMax =  -8.40645494492227E-03  2.30270114961424E-01
 cg2d: Sum(rhs),rhsMax =  -8.40695287075545E-03  2.30273095506914E-01
 cg2d: Sum(rhs),rhsMax =  -8.40745014643786E-03  2.30276075372832E-01
 cg2d: Sum(rhs),rhsMax =  -8.40794677754397E-03  2.30279054563540E-01
 cg2d: Sum(rhs),rhsMax =  -8.40844276806955E-03  2.30282033083415E-01
 cg2d: Sum(rhs),rhsMax =  -8.40893812316535E-03  2.30285010936822E-01
 cg2d: Sum(rhs),rhsMax =  -8.40943284763068E-03  2.30287988128138E-01
 cg2d: Sum(rhs),rhsMax =  -8.40992694608748E-03  2.30290964661734E-01
 cg2d: Sum(rhs),rhsMax =  -8.41042042395931E-03  2.30293940541989E-01
 cg2d: Sum(rhs),rhsMax =  -8.41091328613332E-03  2.30296915773285E-01
 cg2d: Sum(rhs),rhsMax =  -8.41140553805442E-03  2.30299890359987E-01
 cg2d: Sum(rhs),rhsMax =  -8.41189718479456E-03  2.30302864306494E-01
 cg2d: Sum(rhs),rhsMax =  -8.41238823143176E-03  2.30305837617172E-01
 cg2d: Sum(rhs),rhsMax =  -8.41287868410276E-03  2.30308810296408E-01
 cg2d: Sum(rhs),rhsMax =  -8.41336854792783E-03  2.30311782348586E-01
 cg2d: Sum(rhs),rhsMax =  -8.41385782843440E-03  2.30314753778095E-01
 cg2d: Sum(rhs),rhsMax =  -8.41434653172090E-03  2.30317724589323E-01
 cg2d: Sum(rhs),rhsMax =  -8.41483466273479E-03  2.30320694786659E-01
 cg2d: Sum(rhs),rhsMax =  -8.41532222816392E-03  2.30323664374479E-01
 cg2d: Sum(rhs),rhsMax =  -8.41580923310300E-03  2.30326633357193E-01
 cg2d: Sum(rhs),rhsMax =  -8.41629568391151E-03  2.30329601739184E-01
 cg2d: Sum(rhs),rhsMax =  -8.41678158674941E-03  2.30332569524851E-01
 cg2d: Sum(rhs),rhsMax =  -8.41726694760789E-03  2.30335536718581E-01
 cg2d: Sum(rhs),rhsMax =  -8.41775177280753E-03  2.30338503324776E-01
 cg2d: Sum(rhs),rhsMax =  -8.41823606866825E-03  2.30341469347834E-01
 cg2d: Sum(rhs),rhsMax =  -8.41871984149935E-03  2.30344434792149E-01
 cg2d: Sum(rhs),rhsMax =  -8.41920309752441E-03  2.30347399662126E-01
 cg2d: Sum(rhs),rhsMax =  -8.41968584349204E-03  2.30350363962163E-01
 cg2d: Sum(rhs),rhsMax =  -8.42016808595899E-03  2.30353327696661E-01
 cg2d: Sum(rhs),rhsMax =  -8.42064983164016E-03  2.30356290870031E-01
 cg2d: Sum(rhs),rhsMax =  -8.42113108733512E-03  2.30359253486667E-01
 cg2d: Sum(rhs),rhsMax =  -8.42161185990380E-03  2.30362215550984E-01
 cg2d: Sum(rhs),rhsMax =  -8.42209215611426E-03  2.30365177067388E-01
 cg2d: Sum(rhs),rhsMax =  -8.42257198298636E-03  2.30368138040281E-01
 cg2d: Sum(rhs),rhsMax =  -8.42305134779003E-03  2.30371098474075E-01
 cg2d: Sum(rhs),rhsMax =  -8.42353025714910E-03  2.30374058373187E-01
 cg2d: Sum(rhs),rhsMax =  -8.42400871875115E-03  2.30377017742017E-01
 cg2d: Sum(rhs),rhsMax =  -8.42448673931634E-03  2.30379976584987E-01
 cg2d: Sum(rhs),rhsMax =  -8.42496432687176E-03  2.30382934906506E-01
 cg2d: Sum(rhs),rhsMax =  -8.42544148825766E-03  2.30385892710991E-01
 cg2d: Sum(rhs),rhsMax =  -8.42591823137566E-03  2.30388850002855E-01
 cg2d: Sum(rhs),rhsMax =  -8.42639456335061E-03  2.30391806786516E-01
 cg2d: Sum(rhs),rhsMax =  -8.42687049219023E-03  2.30394763066395E-01
 cg2d: Sum(rhs),rhsMax =  -8.42734602549447E-03  2.30397718846907E-01
 cg2d: Sum(rhs),rhsMax =  -8.42782117111997E-03  2.30400674132467E-01
 cg2d: Sum(rhs),rhsMax =  -8.42829593664616E-03  2.30403628927505E-01
 cg2d: Sum(rhs),rhsMax =  -8.42877033008980E-03  2.30406583236437E-01
 cg2d: Sum(rhs),rhsMax =  -8.42924435949496E-03  2.30409537063692E-01
 cg2d: Sum(rhs),rhsMax =  -8.42971803235481E-03  2.30412490413683E-01
 cg2d: Sum(rhs),rhsMax =  -8.43019135776790E-03  2.30415443290843E-01
 cg2d: Sum(rhs),rhsMax =  -8.43066434325151E-03  2.30418395699593E-01
 cg2d: Sum(rhs),rhsMax =  -8.43113699700182E-03  2.30421347644360E-01
 cg2d: Sum(rhs),rhsMax =  -8.43160932744021E-03  2.30424299129572E-01
 cg2d: Sum(rhs),rhsMax =  -8.43208134312793E-03  2.30427250159657E-01
 cg2d: Sum(rhs),rhsMax =  -8.43255305225706E-03  2.30430200739040E-01
 cg2d: Sum(rhs),rhsMax =  -8.43302446316652E-03  2.30433150872156E-01
 cg2d: Sum(rhs),rhsMax =  -8.43349558424127E-03  2.30436100563433E-01
(PID.TID 0000.0001)      cg2d_init_res =   2.94616678918582E-04
(PID.TID 0000.0001)      cg2d_iters(min,last) =      -1      67
(PID.TID 0000.0001)      cg2d_last_res =   9.65303570880016E-08
(PID.TID 0000.0001) // =======================================================
(PID.TID 0000.0001) // Begin MONITOR dynamic field statistics
(PID.TID 0000.0001) // =======================================================
(PID.TID 0000.0001) %MON time_tsnumber                =                 19080
(PID.TID 0000.0001) %MON time_secondsf                =   2.2896000000000E+07
(PID.TID 0000.0001) %MON dynstat_eta_max              =   3.8504883126339E-01
(PID.TID 0000.0001) %MON dynstat_eta_min              =  -1.1938294594953E-01
(PID.TID 0000.0001) %MON dynstat_eta_mean             =   9.7125967365805E-06
(PID.TID 0000.0001) %MON dynstat_eta_sd               =   1.4675000365175E-01
(PID.TID 0000.0001) %MON dynstat_eta_del2             =   3.7286545322176E-05
(PID.TID 0000.0001) %MON dynstat_uvel_max             =   1.7775605914248E-01
(PID.TID 0000.0001) %MON dynstat_uvel_min             =  -1.4393227568999E-01
(PID.TID 0000.0001) %MON dynstat_uvel_mean            =  -1.2851473997132E-08
(PID.TID 0000.0001) %MON dynstat_uvel_sd              =   5.9698582198066E-02
(PID.TID 0000.0001) %MON dynstat_uvel_del2            =   7.6987095971044E-05
(PID.TID 0000.0001) %MON dynstat_vvel_max             =   1.2670321148421E-01
(PID.TID 0000.0001) %MON dynstat_vvel_min             =  -1.5382608038152E-01
(PID.TID 0000.0001) %MON dynstat_vvel_mean            =   8.4108825952425E-08
(PID.TID 0000.0001) %MON dynstat_vvel_sd              =   5.5048307085471E-02
(PID.TID 0000.0001) %MON dynstat_vvel_del2            =   3.7245297846665E-05
(PID.TID 0000.0001) %MON dynstat_wvel_max             =   1.2174096291419E-08
(PID.TID 0000.0001) %MON dynstat_wvel_min             =  -3.7733469495652E-09
(PID.TID 0000.0001) %MON dynstat_wvel_mean            =  -8.6961712339770E-21
(PID.TID 0000.0001) %MON dynstat_wvel_sd              =   4.1162289700251E-09
(PID.TID 0000.0001) %MON dynstat_wvel_del2            =   1.1671869510093E-12
(PID.TID 0000.0001) %MON dynstat_theta_max            =   2.0000000000000E+01
(PID.TID 0000.0001) %MON dynstat_theta_min            =   2.0000000000000E+01
(PID.TID 0000.0001) %MON dynstat_theta_mean           =   2.0000000000000E+01
(PID.TID 0000.0001) %MON dynstat_theta_sd             =   3.8014036363165E-13
(PID.TID 0000.0001) %MON dynstat_theta_del2           =   0.0000000000000E+00
(PID.TID 0000.0001) %MON dynstat_salt_max             =   3.0000000000000E+01
(PID.TID 0000.0001) %MON dynstat_salt_min             =   3.0000000000000E+01
(PID.TID 0000.0001) %MON dynstat_salt_mean            =   2.9999999999999E+01
(PID.TID 0000.0001) %MON dynstat_salt_sd              =   5.5777604757167E-13
(PID.TID 0000.0001) %MON dynstat_salt_del2            =   0.0000000000000E+00
(PID.TID 0000.0001) %MON trAdv_CFL_u_max              =   1.0664900104708E-02
(PID.TID 0000.0001) %MON trAdv_CFL_v_max              =   9.2172253048385E-03
(PID.TID 0000.0001) %MON trAdv_CFL_w_max              =   3.2108642589544E-09
(PID.TID 0000.0001) %MON advcfl_uvel_max              =   1.0665363548549E-02
(PID.TID 0000.0001) %MON advcfl_vvel_max              =   9.2295648228915E-03
(PID.TID 0000.0001) %MON advcfl_wvel_max              =   5.8435662198812E-09
(PID.TID 0000.0001) %MON advcfl_W_hf_max              =   0.0000000000000E+00
(PID.TID 0000.0001) %MON pe_b_mean                    =   2.2079006983608E-05
(PID.TID 0000.0001) %MON ke_max                       =   1.5826235231354E-02
(PID.TID 0000.0001) %MON ke_mean                      =   3.2364889701118E-03
(PID.TID 0000.0001) %MON ke_vol                       =   6.8893493896486E+15
(PID.TID 0000.0001) %MON vort_r_min                   =  -1.1351559022861E-06
(PID.TID 0000.0001) %MON vort_r_max                   =   3.7969131159991E-06
(PID.TID 0000.0001) %MON vort_a_mean                  =   1.0600000000000E-04
(PID.TID 0000.0001) %MON vort_a_sd                    =   3.5815284111917E-06
(PID.TID 0000.0001) %MON vort_p_mean                  =   1.1652272308690E-04
(PID.TID 0000.0001) %MON vort_p_sd                    =   4.1792840912022E-05
(PID.TID 0000.0001) %MON surfExpan_theta_mean         =  -1.7390612406921E-19
(PID.TID 0000.0001) %MON surfExpan_salt_mean          =  -2.6086487044571E-19
(PID.TID 0000.0001) // =======================================================
(PID.TID 0000.0001) // End MONITOR dynamic field statistics
(PID.TID 0000.0001) // =======================================================
 cg2d: Sum(rhs),rhsMax =  -8.43396642472844E-03  2.30439049817304E-01
 cg2d: Sum(rhs),rhsMax =  -8.43443699253877E-03  2.30441998638190E-01
 cg2d: Sum(rhs),rhsMax =  -8.43490729699681E-03  2.30444947030547E-01
 cg2d: Sum(rhs),rhsMax =  -8.43537734675535E-03  2.30447894998785E-01
 cg2d: Sum(rhs),rhsMax =  -8.43584715031804E-03  2.30450842547348E-01
 cg2d: Sum(rhs),rhsMax =  -8.43631671673492E-03  2.30453789680673E-01
 cg2d: Sum(rhs),rhsMax =  -8.43678605492224E-03  2.30456736403195E-01
 cg2d: Sum(rhs),rhsMax =  -8.43725517372720E-03  2.30459682719345E-01
 cg2d: Sum(rhs),rhsMax =  -8.43772408239874E-03  2.30462628633567E-01
 cg2d: Sum(rhs),rhsMax =  -8.43819278972901E-03  2.30465574150292E-01
 cg2d: Sum(rhs),rhsMax =  -8.43866130568478E-03  2.30468519273965E-01
 cg2d: Sum(rhs),rhsMax =  -8.43912963814650E-03  2.30471464009020E-01
 cg2d: Sum(rhs),rhsMax =  -8.43959779709611E-03  2.30474408359904E-01
 cg2d: Sum(rhs),rhsMax =  -8.44006579174630E-03  2.30477352331049E-01
 cg2d: Sum(rhs),rhsMax =  -8.44053363122488E-03  2.30480295926898E-01
 cg2d: Sum(rhs),rhsMax =  -8.44100132509685E-03  2.30483239151895E-01
 cg2d: Sum(rhs),rhsMax =  -8.44146888282692E-03  2.30486182010483E-01
 cg2d: Sum(rhs),rhsMax =  -8.44193631353160E-03  2.30489124507103E-01
 cg2d: Sum(rhs),rhsMax =  -8.44240362681870E-03  2.30492066646196E-01
 cg2d: Sum(rhs),rhsMax =  -8.44287083264766E-03  2.30495008432208E-01
 cg2d: Sum(rhs),rhsMax =  -8.44333794013337E-03  2.30497949869585E-01
 cg2d: Sum(rhs),rhsMax =  -8.44380495889695E-03  2.30500890962774E-01
 cg2d: Sum(rhs),rhsMax =  -8.44427189835283E-03  2.30503831716209E-01
 cg2d: Sum(rhs),rhsMax =  -8.44473876885868E-03  2.30506772134350E-01
 cg2d: Sum(rhs),rhsMax =  -8.44520557945722E-03  2.30509712221634E-01
 cg2d: Sum(rhs),rhsMax =  -8.44567233986273E-03  2.30512651982512E-01
 cg2d: Sum(rhs),rhsMax =  -8.44613906014862E-03  2.30515591421432E-01
 cg2d: Sum(rhs),rhsMax =  -8.44660575049694E-03  2.30518530542836E-01
 cg2d: Sum(rhs),rhsMax =  -8.44707241987097E-03  2.30521469351187E-01
 cg2d: Sum(rhs),rhsMax =  -8.44753907849475E-03  2.30524407850909E-01
 cg2d: Sum(rhs),rhsMax =  -8.44800573641436E-03  2.30527346046469E-01
 cg2d: Sum(rhs),rhsMax =  -8.44847240356892E-03  2.30530283942313E-01
 cg2d: Sum(rhs),rhsMax =  -8.44893908957255E-03  2.30533221542897E-01
 cg2d: Sum(rhs),rhsMax =  -8.44940580434199E-03  2.30536158852654E-01
 cg2d: Sum(rhs),rhsMax =  -8.44987255833837E-03  2.30539095876043E-01
 cg2d: Sum(rhs),rhsMax =  -8.45033936105867E-03  2.30542032617525E-01
 cg2d: Sum(rhs),rhsMax =  -8.45080622292292E-03  2.30544969081535E-01
 cg2d: Sum(rhs),rhsMax =  -8.45127315362287E-03  2.30547905272536E-01
 cg2d: Sum(rhs),rhsMax =  -8.45174016299557E-03  2.30550841194975E-01
 cg2d: Sum(rhs),rhsMax =  -8.45220726183343E-03  2.30553776853297E-01
 cg2d: Sum(rhs),rhsMax =  -8.45267445960720E-03  2.30556712251969E-01
 cg2d: Sum(rhs),rhsMax =  -8.45314176640072E-03  2.30559647395433E-01
 cg2d: Sum(rhs),rhsMax =  -8.45360919258223E-03  2.30562582288144E-01
 cg2d: Sum(rhs),rhsMax =  -8.45407674825177E-03  2.30565516934553E-01
 cg2d: Sum(rhs),rhsMax =  -8.45454444312871E-03  2.30568451339119E-01
 cg2d: Sum(rhs),rhsMax =  -8.45501228766449E-03  2.30571385506291E-01
 cg2d: Sum(rhs),rhsMax =  -8.45548029179282E-03  2.30574319440520E-01
 cg2d: Sum(rhs),rhsMax =  -8.45594846565695E-03  2.30577253146261E-01
 cg2d: Sum(rhs),rhsMax =  -8.45641681971893E-03  2.30580186627971E-01
 cg2d: Sum(rhs),rhsMax =  -8.45688536331739E-03  2.30583119890103E-01
 cg2d: Sum(rhs),rhsMax =  -8.45735410730868E-03  2.30586052937111E-01
 cg2d: Sum(rhs),rhsMax =  -8.45782306142307E-03  2.30588985773445E-01
 cg2d: Sum(rhs),rhsMax =  -8.45829223617243E-03  2.30591918403566E-01
 cg2d: Sum(rhs),rhsMax =  -8.45876164134195E-03  2.30594850831925E-01
 cg2d: Sum(rhs),rhsMax =  -8.45923128707496E-03  2.30597783062973E-01
 cg2d: Sum(rhs),rhsMax =  -8.45970118314677E-03  2.30600715101169E-01
 cg2d: Sum(rhs),rhsMax =  -8.46017134029798E-03  2.30603646950966E-01
 cg2d: Sum(rhs),rhsMax =  -8.46064176811273E-03  2.30606578616820E-01
 cg2d: Sum(rhs),rhsMax =  -8.46111247704218E-03  2.30609510103180E-01
 cg2d: Sum(rhs),rhsMax =  -8.46158347660010E-03  2.30612441414507E-01
 cg2d: Sum(rhs),rhsMax =  -8.46205477717342E-03  2.30615372555254E-01
 cg2d: Sum(rhs),rhsMax =  -8.46252638874472E-03  2.30618303529871E-01
 cg2d: Sum(rhs),rhsMax =  -8.46299832103829E-03  2.30621234342819E-01
 cg2d: Sum(rhs),rhsMax =  -8.46347058445444E-03  2.30624164998551E-01
 cg2d: Sum(rhs),rhsMax =  -8.46394318879990E-03  2.30627095501517E-01
 cg2d: Sum(rhs),rhsMax =  -8.46441614390278E-03  2.30630025856175E-01
 cg2d: Sum(rhs),rhsMax =  -8.46488946004827E-03  2.30632956066975E-01
 cg2d: Sum(rhs),rhsMax =  -8.46536314665895E-03  2.30635886138374E-01
 cg2d: Sum(rhs),rhsMax =  -8.46583721393838E-03  2.30638816074830E-01
 cg2d: Sum(rhs),rhsMax =  -8.46631167146417E-03  2.30641745880790E-01
 cg2d: Sum(rhs),rhsMax =  -8.46678652875600E-03  2.30644675560710E-01
 cg2d: Sum(rhs),rhsMax =  -8.46726179671092E-03  2.30647605119041E-01
(PID.TID 0000.0001)      cg2d_init_res =   2.93216595617389E-04
(PID.TID 0000.0001)      cg2d_iters(min,last) =      -1      67
(PID.TID 0000.0001)      cg2d_last_res =   9.62844345210146E-08
(PID.TID 0000.0001) // =======================================================
(PID.TID 0000.0001) // Begin MONITOR dynamic field statistics
(PID.TID 0000.0001) // =======================================================
(PID.TID 0000.0001) %MON time_tsnumber                =                 19152
(PID.TID 0000.0001) %MON time_secondsf                =   2.2982400000000E+07
(PID.TID 0000.0001) %MON dynstat_eta_max              =   3.8609543395782E-01
(PID.TID 0000.0001) %MON dynstat_eta_min              =  -1.1961109691680E-01
(PID.TID 0000.0001) %MON dynstat_eta_mean             =   9.7604370508488E-06
(PID.TID 0000.0001) %MON dynstat_eta_sd               =   1.4709634306723E-01
(PID.TID 0000.0001) %MON dynstat_eta_del2             =   3.7359043482579E-05
(PID.TID 0000.0001) %MON dynstat_uvel_max             =   1.7797040685939E-01
(PID.TID 0000.0001) %MON dynstat_uvel_min             =  -1.4431525183528E-01
(PID.TID 0000.0001) %MON dynstat_uvel_mean            =  -1.2272593468724E-08
(PID.TID 0000.0001) %MON dynstat_uvel_sd              =   5.9837502209067E-02
(PID.TID 0000.0001) %MON dynstat_uvel_del2            =   7.7022018194212E-05
(PID.TID 0000.0001) %MON dynstat_vvel_max             =   1.2708962100499E-01
(PID.TID 0000.0001) %MON dynstat_vvel_min             =  -1.5421235556682E-01
(PID.TID 0000.0001) %MON dynstat_vvel_mean            =   8.5128235498655E-08
(PID.TID 0000.0001) %MON dynstat_vvel_sd              =   5.5176107105916E-02
(PID.TID 0000.0001) %MON dynstat_vvel_del2            =   3.7264560321531E-05
(PID.TID 0000.0001) %MON dynstat_wvel_max             =   1.2133428831585E-08
(PID.TID 0000.0001) %MON dynstat_wvel_min             =  -3.8583868644309E-09
(PID.TID 0000.0001) %MON dynstat_wvel_mean            =  -5.5973602128587E-21
(PID.TID 0000.0001) %MON dynstat_wvel_sd              =   4.1052224240355E-09
(PID.TID 0000.0001) %MON dynstat_wvel_del2            =   1.1638061922854E-12
(PID.TID 0000.0001) %MON dynstat_theta_max            =   2.0000000000000E+01
(PID.TID 0000.0001) %MON dynstat_theta_min            =   2.0000000000000E+01
(PID.TID 0000.0001) %MON dynstat_theta_mean           =   2.0000000000000E+01
(PID.TID 0000.0001) %MON dynstat_theta_sd             =   3.8014036363165E-13
(PID.TID 0000.0001) %MON dynstat_theta_del2           =   0.0000000000000E+00
(PID.TID 0000.0001) %MON dynstat_salt_max             =   3.0000000000000E+01
(PID.TID 0000.0001) %MON dynstat_salt_min             =   3.0000000000000E+01
(PID.TID 0000.0001) %MON dynstat_salt_mean            =   2.9999999999999E+01
(PID.TID 0000.0001) %MON dynstat_salt_sd              =   5.5777604757167E-13
(PID.TID 0000.0001) %MON dynstat_salt_del2            =   0.0000000000000E+00
(PID.TID 0000.0001) %MON trAdv_CFL_u_max              =   1.0677766738922E-02
(PID.TID 0000.0001) %MON trAdv_CFL_v_max              =   9.2403709526817E-03
(PID.TID 0000.0001) %MON trAdv_CFL_w_max              =   3.2030346519279E-09
(PID.TID 0000.0001) %MON advcfl_uvel_max              =   1.0678224411564E-02
(PID.TID 0000.0001) %MON advcfl_vvel_max              =   9.2527413340090E-03
(PID.TID 0000.0001) %MON advcfl_wvel_max              =   5.8240458391607E-09
(PID.TID 0000.0001) %MON advcfl_W_hf_max              =   0.0000000000000E+00
(PID.TID 0000.0001) %MON pe_b_mean                    =   2.2183345705570E-05
(PID.TID 0000.0001) %MON ke_max                       =   1.5863460292902E-02
(PID.TID 0000.0001) %MON ke_mean                      =   3.2515530908314E-03
(PID.TID 0000.0001) %MON ke_vol                       =   6.8893493896486E+15
(PID.TID 0000.0001) %MON vort_r_min                   =  -1.1380872836644E-06
(PID.TID 0000.0001) %MON vort_r_max                   =   3.8007027265643E-06
(PID.TID 0000.0001) %MON vort_a_mean                  =   1.0600000000000E-04
(PID.TID 0000.0001) %MON vort_a_sd                    =   3.5817350770230E-06
(PID.TID 0000.0001) %MON vort_p_mean                  =   1.1652272308690E-04
(PID.TID 0000.0001) %MON vort_p_sd                    =   4.1792841020828E-05
(PID.TID 0000.0001) %MON surfExpan_theta_mean         =  -1.1194521852708E-19
(PID.TID 0000.0001) %MON surfExpan_salt_mean          =  -1.6791814358738E-19
(PID.TID 0000.0001) // =======================================================
(PID.TID 0000.0001) // End MONITOR dynamic field statistics
(PID.TID 0000.0001) // =======================================================
 cg2d: Sum(rhs),rhsMax =  -8.46773748364881E-03  2.30650534560245E-01
 cg2d: Sum(rhs),rhsMax =  -8.46821359998370E-03  2.30653463888770E-01
 cg2d: Sum(rhs),rhsMax =  -8.46869015611767E-03  2.30656393109059E-01
 cg2d: Sum(rhs),rhsMax =  -8.46916716054740E-03  2.30659322225582E-01
 cg2d: Sum(rhs),rhsMax =  -8.46964462349012E-03  2.30662251242782E-01
 cg2d: Sum(rhs),rhsMax =  -8.47012255424561E-03  2.30665180165107E-01
 cg2d: Sum(rhs),rhsMax =  -8.47060096256193E-03  2.30668108997019E-01
 cg2d: Sum(rhs),rhsMax =  -8.47107985792119E-03  2.30671037742964E-01
 cg2d: Sum(rhs),rhsMax =  -8.47155924947905E-03  2.30673966407391E-01
 cg2d: Sum(rhs),rhsMax =  -8.47203914688548E-03  2.30676894994762E-01
 cg2d: Sum(rhs),rhsMax =  -8.47251955958460E-03  2.30679823509514E-01
 cg2d: Sum(rhs),rhsMax =  -8.47300049660279E-03  2.30682751956108E-01
 cg2d: Sum(rhs),rhsMax =  -8.47348196786311E-03  2.30685680338982E-01
 cg2d: Sum(rhs),rhsMax =  -8.47396398209233E-03  2.30688608662600E-01
 cg2d: Sum(rhs),rhsMax =  -8.47444654849377E-03  2.30691536931402E-01
 cg2d: Sum(rhs),rhsMax =  -8.47492967632620E-03  2.30694465149841E-01
 cg2d: Sum(rhs),rhsMax =  -8.47541337493019E-03  2.30697393322363E-01
 cg2d: Sum(rhs),rhsMax =  -8.47589765283173E-03  2.30700321453422E-01
 cg2d: Sum(rhs),rhsMax =  -8.47638251950982E-03  2.30703249547457E-01
 cg2d: Sum(rhs),rhsMax =  -8.47686798322305E-03  2.30706177608923E-01
 cg2d: Sum(rhs),rhsMax =  -8.47735405344804E-03  2.30709105642259E-01
 cg2d: Sum(rhs),rhsMax =  -8.47784073899932E-03  2.30712033651919E-01
 cg2d: Sum(rhs),rhsMax =  -8.47832804846847E-03  2.30714961642348E-01
 cg2d: Sum(rhs),rhsMax =  -8.47881599058492E-03  2.30717889617985E-01
 cg2d: Sum(rhs),rhsMax =  -8.47930457412671E-03  2.30720817583285E-01
 cg2d: Sum(rhs),rhsMax =  -8.47979380755442E-03  2.30723745542681E-01
 cg2d: Sum(rhs),rhsMax =  -8.48028369926441E-03  2.30726673500625E-01
 cg2d: Sum(rhs),rhsMax =  -8.48077425803317E-03  2.30729601461561E-01
 cg2d: Sum(rhs),rhsMax =  -8.48126549258899E-03  2.30732529429926E-01
 cg2d: Sum(rhs),rhsMax =  -8.48175741047630E-03  2.30735457410166E-01
 cg2d: Sum(rhs),rhsMax =  -8.48225002031438E-03  2.30738385406721E-01
 cg2d: Sum(rhs),rhsMax =  -8.48274333064720E-03  2.30741313424034E-01
 cg2d: Sum(rhs),rhsMax =  -8.48323734919739E-03  2.30744241466541E-01
 cg2d: Sum(rhs),rhsMax =  -8.48373208446745E-03  2.30747169538692E-01
 cg2d: Sum(rhs),rhsMax =  -8.48422754412666E-03  2.30750097644913E-01
 cg2d: Sum(rhs),rhsMax =  -8.48472373649824E-03  2.30753025789652E-01
 cg2d: Sum(rhs),rhsMax =  -8.48522066947284E-03  2.30755953977345E-01
 cg2d: Sum(rhs),rhsMax =  -8.48571835041161E-03  2.30758882212428E-01
 cg2d: Sum(rhs),rhsMax =  -8.48621678749043E-03  2.30761810499337E-01
 cg2d: Sum(rhs),rhsMax =  -8.48671598845170E-03  2.30764738842507E-01
 cg2d: Sum(rhs),rhsMax =  -8.48721596034062E-03  2.30767667246373E-01
 cg2d: Sum(rhs),rhsMax =  -8.48771671142241E-03  2.30770595715375E-01
 cg2d: Sum(rhs),rhsMax =  -8.48821824848356E-03  2.30773524253938E-01
 cg2d: Sum(rhs),rhsMax =  -8.48872057951728E-03  2.30776452866503E-01
 cg2d: Sum(rhs),rhsMax =  -8.48922371189637E-03  2.30779381557495E-01
 cg2d: Sum(rhs),rhsMax =  -8.48972765221162E-03  2.30782310331352E-01
 cg2d: Sum(rhs),rhsMax =  -8.49023240844101E-03  2.30785239192493E-01
 cg2d: Sum(rhs),rhsMax =  -8.49073798689048E-03  2.30788168145360E-01
 cg2d: Sum(rhs),rhsMax =  -8.49124439526549E-03  2.30791097194380E-01
 cg2d: Sum(rhs),rhsMax =  -8.49175163994903E-03  2.30794026343973E-01
 cg2d: Sum(rhs),rhsMax =  -8.49225972838939E-03  2.30796955598577E-01
 cg2d: Sum(rhs),rhsMax =  -8.49276866727729E-03  2.30799884962613E-01
 cg2d: Sum(rhs),rhsMax =  -8.49327846285671E-03  2.30802814440502E-01
 cg2d: Sum(rhs),rhsMax =  -8.49378912247903E-03  2.30805744036675E-01
 cg2d: Sum(rhs),rhsMax =  -8.49430065210515E-03  2.30808673755549E-01
 cg2d: Sum(rhs),rhsMax =  -8.49481305849002E-03  2.30811603601551E-01
 cg2d: Sum(rhs),rhsMax =  -8.49532634820430E-03  2.30814533579103E-01
 cg2d: Sum(rhs),rhsMax =  -8.49584052731682E-03  2.30817463692627E-01
 cg2d: Sum(rhs),rhsMax =  -8.49635560226346E-03  2.30820393946538E-01
 cg2d: Sum(rhs),rhsMax =  -8.49687157920444E-03  2.30823324345264E-01
 cg2d: Sum(rhs),rhsMax =  -8.49738846418155E-03  2.30826254893208E-01
 cg2d: Sum(rhs),rhsMax =  -8.49790626290022E-03  2.30829185594799E-01
 cg2d: Sum(rhs),rhsMax =  -8.49842498186387E-03  2.30832116454448E-01
 cg2d: Sum(rhs),rhsMax =  -8.49894462690573E-03  2.30835047476570E-01
 cg2d: Sum(rhs),rhsMax =  -8.49946520330175E-03  2.30837978665578E-01
 cg2d: Sum(rhs),rhsMax =  -8.49998671730672E-03  2.30840910025888E-01
 cg2d: Sum(rhs),rhsMax =  -8.50050917425892E-03  2.30843841561910E-01
 cg2d: Sum(rhs),rhsMax =  -8.50103257942653E-03  2.30846773278051E-01
 cg2d: Sum(rhs),rhsMax =  -8.50155693918603E-03  2.30849705178722E-01
 cg2d: Sum(rhs),rhsMax =  -8.50208225793405E-03  2.30852637268339E-01
 cg2d: Sum(rhs),rhsMax =  -8.50260854128309E-03  2.30855569551297E-01
 cg2d: Sum(rhs),rhsMax =  -8.50313579497794E-03  2.30858502032008E-01
(PID.TID 0000.0001)      cg2d_init_res =   2.91982450839081E-04
(PID.TID 0000.0001)      cg2d_iters(min,last) =      -1      67
(PID.TID 0000.0001)      cg2d_last_res =   9.54010939487922E-08
(PID.TID 0000.0001) // =======================================================
(PID.TID 0000.0001) // Begin MONITOR dynamic field statistics
(PID.TID 0000.0001) // =======================================================
(PID.TID 0000.0001) %MON time_tsnumber                =                 19224
(PID.TID 0000.0001) %MON time_secondsf                =   2.3068800000000E+07
(PID.TID 0000.0001) %MON dynstat_eta_max              =   3.8713923677502E-01
(PID.TID 0000.0001) %MON dynstat_eta_min              =  -1.1983887226779E-01
(PID.TID 0000.0001) %MON dynstat_eta_mean             =   9.8108107242841E-06
(PID.TID 0000.0001) %MON dynstat_eta_sd               =   1.4744203361179E-01
(PID.TID 0000.0001) %MON dynstat_eta_del2             =   3.7431096215444E-05
(PID.TID 0000.0001) %MON dynstat_uvel_max             =   1.7817785377353E-01
(PID.TID 0000.0001) %MON dynstat_uvel_min             =  -1.4469689376398E-01
(PID.TID 0000.0001) %MON dynstat_uvel_mean            =  -1.1547485052705E-08
(PID.TID 0000.0001) %MON dynstat_uvel_sd              =   5.9976707319804E-02
(PID.TID 0000.0001) %MON dynstat_uvel_del2            =   7.7056087210091E-05
(PID.TID 0000.0001) %MON dynstat_vvel_max             =   1.2746872193676E-01
(PID.TID 0000.0001) %MON dynstat_vvel_min             =  -1.5459928345409E-01
(PID.TID 0000.0001) %MON dynstat_vvel_mean            =   8.5841375185214E-08
(PID.TID 0000.0001) %MON dynstat_vvel_sd              =   5.5303061675911E-02
(PID.TID 0000.0001) %MON dynstat_vvel_del2            =   3.7287086344159E-05
(PID.TID 0000.0001) %MON dynstat_wvel_max             =   1.2089515158441E-08
(PID.TID 0000.0001) %MON dynstat_wvel_min             =  -3.9231073865449E-09
(PID.TID 0000.0001) %MON dynstat_wvel_mean            =   1.2107684849778E-21
(PID.TID 0000.0001) %MON dynstat_wvel_sd              =   4.0936641072776E-09
(PID.TID 0000.0001) %MON dynstat_wvel_del2            =   1.1604601115431E-12
(PID.TID 0000.0001) %MON dynstat_theta_max            =   2.0000000000000E+01
(PID.TID 0000.0001) %MON dynstat_theta_min            =   2.0000000000000E+01
(PID.TID 0000.0001) %MON dynstat_theta_mean           =   2.0000000000000E+01
(PID.TID 0000.0001) %MON dynstat_theta_sd             =   3.8014036363165E-13
(PID.TID 0000.0001) %MON dynstat_theta_del2           =   0.0000000000000E+00
(PID.TID 0000.0001) %MON dynstat_salt_max             =   3.0000000000000E+01
(PID.TID 0000.0001) %MON dynstat_salt_min             =   3.0000000000000E+01
(PID.TID 0000.0001) %MON dynstat_salt_mean            =   2.9999999999999E+01
(PID.TID 0000.0001) %MON dynstat_salt_sd              =   5.5777604757167E-13
(PID.TID 0000.0001) %MON dynstat_salt_del2            =   0.0000000000000E+00
(PID.TID 0000.0001) %MON trAdv_CFL_u_max              =   1.0690218612109E-02
(PID.TID 0000.0001) %MON trAdv_CFL_v_max              =   9.2635559996497E-03
(PID.TID 0000.0001) %MON trAdv_CFL_w_max              =   3.1944343183993E-09
(PID.TID 0000.0001) %MON advcfl_uvel_max              =   1.0690671226412E-02
(PID.TID 0000.0001) %MON advcfl_vvel_max              =   9.2759570072457E-03
(PID.TID 0000.0001) %MON advcfl_wvel_max              =   5.8029672760516E-09
(PID.TID 0000.0001) %MON advcfl_W_hf_max              =   0.0000000000000E+00
(PID.TID 0000.0001) %MON pe_b_mean                    =   2.2287734212848E-05
(PID.TID 0000.0001) %MON ke_max                       =   1.5899582879738E-02
(PID.TID 0000.0001) %MON ke_mean                      =   3.2666230762486E-03
(PID.TID 0000.0001) %MON ke_vol                       =   6.8893493896486E+15
(PID.TID 0000.0001) %MON vort_r_min                   =  -1.1410151619491E-06
(PID.TID 0000.0001) %MON vort_r_max                   =   3.8044883923008E-06
(PID.TID 0000.0001) %MON vort_a_mean                  =   1.0600000000000E-04
(PID.TID 0000.0001) %MON vort_a_sd                    =   3.5819419728981E-06
(PID.TID 0000.0001) %MON vort_p_mean                  =   1.1652272308690E-04
(PID.TID 0000.0001) %MON vort_p_sd                    =   4.1792840670635E-05
(PID.TID 0000.0001) %MON surfExpan_theta_mean         =   2.4244033940906E-20
(PID.TID 0000.0001) %MON surfExpan_salt_mean          =   3.6369524675845E-20
(PID.TID 0000.0001) // =======================================================
(PID.TID 0000.0001) // End MONITOR dynamic field statistics
(PID.TID 0000.0001) // =======================================================
 cg2d: Sum(rhs),rhsMax =  -8.50366402338614E-03  2.30861434714880E-01
 cg2d: Sum(rhs),rhsMax =  -8.50419323197274E-03  2.30864367604308E-01
 cg2d: Sum(rhs),rhsMax =  -8.50472342571354E-03  2.30867300704701E-01
 cg2d: Sum(rhs),rhsMax =  -8.50525460918073E-03  2.30870234020460E-01
 cg2d: Sum(rhs),rhsMax =  -8.50578678750955E-03  2.30873167555986E-01
 cg2d: Sum(rhs),rhsMax =  -8.50631996509608E-03  2.30876101315672E-01
 cg2d: Sum(rhs),rhsMax =  -8.50685414734332E-03  2.30879035303918E-01
 cg2d: Sum(rhs),rhsMax =  -8.50738933796349E-03  2.30881969525122E-01
 cg2d: Sum(rhs),rhsMax =  -8.50792554171492E-03  2.30884903983682E-01
 cg2d: Sum(rhs),rhsMax =  -8.50846276324691E-03  2.30887838683989E-01
 cg2d: Sum(rhs),rhsMax =  -8.50900100694163E-03  2.30890773630433E-01
 cg2d: Sum(rhs),rhsMax =  -8.50954027662273E-03  2.30893708827407E-01
 cg2d: Sum(rhs),rhsMax =  -8.51008057691027E-03  2.30896644279300E-01
 cg2d: Sum(rhs),rhsMax =  -8.51062191121315E-03  2.30899579990500E-01
 cg2d: Sum(rhs),rhsMax =  -8.51116428465056E-03  2.30902515965398E-01
 cg2d: Sum(rhs),rhsMax =  -8.51170769994864E-03  2.30905452208376E-01
 cg2d: Sum(rhs),rhsMax =  -8.51225216156107E-03  2.30908388723825E-01
 cg2d: Sum(rhs),rhsMax =  -8.51279767339654E-03  2.30911325516118E-01
 cg2d: Sum(rhs),rhsMax =  -8.51334423840898E-03  2.30914262589644E-01
 cg2d: Sum(rhs),rhsMax =  -8.51389186108373E-03  2.30917199948784E-01
 cg2d: Sum(rhs),rhsMax =  -8.51444054477854E-03  2.30920137597911E-01
 cg2d: Sum(rhs),rhsMax =  -8.51499029277157E-03  2.30923075541404E-01
 cg2d: Sum(rhs),rhsMax =  -8.51554110864524E-03  2.30926013783641E-01
 cg2d: Sum(rhs),rhsMax =  -8.51609299558847E-03  2.30928952329002E-01
 cg2d: Sum(rhs),rhsMax =  -8.51664595626783E-03  2.30931891181849E-01
 cg2d: Sum(rhs),rhsMax =  -8.51719999475715E-03  2.30934830346558E-01
 cg2d: Sum(rhs),rhsMax =  -8.51775511400411E-03  2.30937769827501E-01
 cg2d: Sum(rhs),rhsMax =  -8.51831131630405E-03  2.30940709629047E-01
 cg2d: Sum(rhs),rhsMax =  -8.51886860502327E-03  2.30943649755561E-01
 cg2d: Sum(rhs),rhsMax =  -8.51942698292974E-03  2.30946590211407E-01
 cg2d: Sum(rhs),rhsMax =  -8.51998645295253E-03  2.30949531000948E-01
 cg2d: Sum(rhs),rhsMax =  -8.52054701758737E-03  2.30952472128550E-01
 cg2d: Sum(rhs),rhsMax =  -8.52110867924912E-03  2.30955413598577E-01
 cg2d: Sum(rhs),rhsMax =  -8.52167144154403E-03  2.30958355415380E-01
 cg2d: Sum(rhs),rhsMax =  -8.52223530621738E-03  2.30961297583319E-01
 cg2d: Sum(rhs),rhsMax =  -8.52280027508090E-03  2.30964240106753E-01
 cg2d: Sum(rhs),rhsMax =  -8.52336635127759E-03  2.30967182990032E-01
 cg2d: Sum(rhs),rhsMax =  -8.52393353679591E-03  2.30970126237517E-01
 cg2d: Sum(rhs),rhsMax =  -8.52450183390043E-03  2.30973069853548E-01
 cg2d: Sum(rhs),rhsMax =  -8.52507124468803E-03  2.30976013842475E-01
 cg2d: Sum(rhs),rhsMax =  -8.52564177134028E-03  2.30978958208653E-01
 cg2d: Sum(rhs),rhsMax =  -8.52621341566989E-03  2.30981902956420E-01
 cg2d: Sum(rhs),rhsMax =  -8.52678617948286E-03  2.30984848090131E-01
 cg2d: Sum(rhs),rhsMax =  -8.52736006493537E-03  2.30987793614118E-01
 cg2d: Sum(rhs),rhsMax =  -8.52793507344597E-03  2.30990739532727E-01
 cg2d: Sum(rhs),rhsMax =  -8.52851120733744E-03  2.30993685850296E-01
 cg2d: Sum(rhs),rhsMax =  -8.52908846706812E-03  2.30996632571160E-01
 cg2d: Sum(rhs),rhsMax =  -8.52966685507346E-03  2.30999579699653E-01
 cg2d: Sum(rhs),rhsMax =  -8.53024637295631E-03  2.31002527240114E-01
 cg2d: Sum(rhs),rhsMax =  -8.53082702186183E-03  2.31005475196872E-01
 cg2d: Sum(rhs),rhsMax =  -8.53140880312889E-03  2.31008423574252E-01
 cg2d: Sum(rhs),rhsMax =  -8.53199171853799E-03  2.31011372376591E-01
 cg2d: Sum(rhs),rhsMax =  -8.53257576850923E-03  2.31014321608206E-01
 cg2d: Sum(rhs),rhsMax =  -8.53316095485311E-03  2.31017271273428E-01
 cg2d: Sum(rhs),rhsMax =  -8.53374727841813E-03  2.31020221376584E-01
 cg2d: Sum(rhs),rhsMax =  -8.53433474042126E-03  2.31023171921977E-01
 cg2d: Sum(rhs),rhsMax =  -8.53492334160555E-03  2.31026122913944E-01
 cg2d: Sum(rhs),rhsMax =  -8.53551308331655E-03  2.31029074356794E-01
 cg2d: Sum(rhs),rhsMax =  -8.53610396560002E-03  2.31032026254837E-01
 cg2d: Sum(rhs),rhsMax =  -8.53669599012104E-03  2.31034978612396E-01
 cg2d: Sum(rhs),rhsMax =  -8.53728915678290E-03  2.31037931433770E-01
 cg2d: Sum(rhs),rhsMax =  -8.53788346730588E-03  2.31040884723282E-01
 cg2d: Sum(rhs),rhsMax =  -8.53847892198837E-03  2.31043838485226E-01
 cg2d: Sum(rhs),rhsMax =  -8.53907552078210E-03  2.31046792723912E-01
 cg2d: Sum(rhs),rhsMax =  -8.53967326493175E-03  2.31049747443647E-01
 cg2d: Sum(rhs),rhsMax =  -8.54027215434206E-03  2.31052702648722E-01
 cg2d: Sum(rhs),rhsMax =  -8.54087218977042E-03  2.31055658343442E-01
 cg2d: Sum(rhs),rhsMax =  -8.54147337104348E-03  2.31058614532106E-01
 cg2d: Sum(rhs),rhsMax =  -8.54207569886926E-03  2.31061571219009E-01
 cg2d: Sum(rhs),rhsMax =  -8.54267917362397E-03  2.31064528408433E-01
 cg2d: Sum(rhs),rhsMax =  -8.54328379533512E-03  2.31067486104683E-01
 cg2d: Sum(rhs),rhsMax =  -8.54388956386363E-03  2.31070444312036E-01
(PID.TID 0000.0001)      cg2d_init_res =   2.90916379209723E-04
(PID.TID 0000.0001)      cg2d_iters(min,last) =      -1      67
(PID.TID 0000.0001)      cg2d_last_res =   9.42935104282385E-08
(PID.TID 0000.0001) // =======================================================
(PID.TID 0000.0001) // Begin MONITOR dynamic field statistics
(PID.TID 0000.0001) // =======================================================
(PID.TID 0000.0001) %MON time_tsnumber                =                 19296
(PID.TID 0000.0001) %MON time_secondsf                =   2.3155200000000E+07
(PID.TID 0000.0001) %MON dynstat_eta_max              =   3.8818005998774E-01
(PID.TID 0000.0001) %MON dynstat_eta_min              =  -1.2006657977317E-01
(PID.TID 0000.0001) %MON dynstat_eta_mean             =   9.8669709428166E-06
(PID.TID 0000.0001) %MON dynstat_eta_sd               =   1.4778696948561E-01
(PID.TID 0000.0001) %MON dynstat_eta_del2             =   3.7502769626693E-05
(PID.TID 0000.0001) %MON dynstat_uvel_max             =   1.7837931414853E-01
(PID.TID 0000.0001) %MON dynstat_uvel_min             =  -1.4507608740719E-01
(PID.TID 0000.0001) %MON dynstat_uvel_mean            =  -1.0808492466319E-08
(PID.TID 0000.0001) %MON dynstat_uvel_sd              =   6.0115922302051E-02
(PID.TID 0000.0001) %MON dynstat_uvel_del2            =   7.7089643203173E-05
(PID.TID 0000.0001) %MON dynstat_vvel_max             =   1.2784018853684E-01
(PID.TID 0000.0001) %MON dynstat_vvel_min             =  -1.5498647713682E-01
(PID.TID 0000.0001) %MON dynstat_vvel_mean            =   8.6215640485583E-08
(PID.TID 0000.0001) %MON dynstat_vvel_sd              =   5.5429459489119E-02
(PID.TID 0000.0001) %MON dynstat_vvel_del2            =   3.7312608191316E-05
(PID.TID 0000.0001) %MON dynstat_wvel_max             =   1.2052672184655E-08
(PID.TID 0000.0001) %MON dynstat_wvel_min             =  -3.9644885413873E-09
(PID.TID 0000.0001) %MON dynstat_wvel_mean            =  -1.5104917944579E-20
(PID.TID 0000.0001) %MON dynstat_wvel_sd              =   4.0815478574909E-09
(PID.TID 0000.0001) %MON dynstat_wvel_del2            =   1.1572156152935E-12
(PID.TID 0000.0001) %MON dynstat_theta_max            =   2.0000000000000E+01
(PID.TID 0000.0001) %MON dynstat_theta_min            =   2.0000000000000E+01
(PID.TID 0000.0001) %MON dynstat_theta_mean           =   2.0000000000000E+01
(PID.TID 0000.0001) %MON dynstat_theta_sd             =   3.8014036363165E-13
(PID.TID 0000.0001) %MON dynstat_theta_del2           =   0.0000000000000E+00
(PID.TID 0000.0001) %MON dynstat_salt_max             =   3.0000000000000E+01
(PID.TID 0000.0001) %MON dynstat_salt_min             =   3.0000000000000E+01
(PID.TID 0000.0001) %MON dynstat_salt_mean            =   2.9999999999999E+01
(PID.TID 0000.0001) %MON dynstat_salt_sd              =   5.5777604757167E-13
(PID.TID 0000.0001) %MON dynstat_salt_del2            =   0.0000000000000E+00
(PID.TID 0000.0001) %MON trAdv_CFL_u_max              =   1.0702310505527E-02
(PID.TID 0000.0001) %MON trAdv_CFL_v_max              =   9.2867573287055E-03
(PID.TID 0000.0001) %MON trAdv_CFL_w_max              =   3.1850838686843E-09
(PID.TID 0000.0001) %MON advcfl_uvel_max              =   1.0702758848912E-02
(PID.TID 0000.0001) %MON advcfl_vvel_max              =   9.2991886282089E-03
(PID.TID 0000.0001) %MON advcfl_wvel_max              =   5.7852826486342E-09
(PID.TID 0000.0001) %MON advcfl_W_hf_max              =   0.0000000000000E+00
(PID.TID 0000.0001) %MON pe_b_mean                    =   2.2392139064877E-05
(PID.TID 0000.0001) %MON ke_max                       =   1.5934770887493E-02
(PID.TID 0000.0001) %MON ke_mean                      =   3.2816981936065E-03
(PID.TID 0000.0001) %MON ke_vol                       =   6.8893493896486E+15
(PID.TID 0000.0001) %MON vort_r_min                   =  -1.1439418551140E-06
(PID.TID 0000.0001) %MON vort_r_max                   =   3.8083774201897E-06
(PID.TID 0000.0001) %MON vort_a_mean                  =   1.0600000000000E-04
(PID.TID 0000.0001) %MON vort_a_sd                    =   3.5821492802123E-06
(PID.TID 0000.0001) %MON vort_p_mean                  =   1.1652272308690E-04
(PID.TID 0000.0001) %MON vort_p_sd                    =   4.1792839747814E-05
(PID.TID 0000.0001) %MON surfExpan_theta_mean         =  -3.0208361244553E-19
(PID.TID 0000.0001) %MON surfExpan_salt_mean          =  -4.5312605026185E-19
(PID.TID 0000.0001) // =======================================================
(PID.TID 0000.0001) // End MONITOR dynamic field statistics
(PID.TID 0000.0001) // =======================================================
 cg2d: Sum(rhs),rhsMax =  -8.54449647965635E-03  2.31073403034784E-01
 cg2d: Sum(rhs),rhsMax =  -8.54510454227779E-03  2.31076362277209E-01
 cg2d: Sum(rhs),rhsMax =  -8.54571375210181E-03  2.31079322043599E-01
 cg2d: Sum(rhs),rhsMax =  -8.54632410881444E-03  2.31082282338221E-01
 cg2d: Sum(rhs),rhsMax =  -8.54693561249336E-03  2.31085243165360E-01
 cg2d: Sum(rhs),rhsMax =  -8.54754826273476E-03  2.31088204529298E-01
 cg2d: Sum(rhs),rhsMax =  -8.54816205912231E-03  2.31091166434297E-01
 cg2d: Sum(rhs),rhsMax =  -8.54877700185184E-03  2.31094128884637E-01
 cg2d: Sum(rhs),rhsMax =  -8.54939309012740E-03  2.31097091884577E-01
 cg2d: Sum(rhs),rhsMax =  -8.55001032334128E-03  2.31100055438395E-01
 cg2d: Sum(rhs),rhsMax =  -8.55062870216640E-03  2.31103019550349E-01
 cg2d: Sum(rhs),rhsMax =  -8.55124822473589E-03  2.31105984224699E-01
 cg2d: Sum(rhs),rhsMax =  -8.55186889128399E-03  2.31108949465707E-01
 cg2d: Sum(rhs),rhsMax =  -8.55249070130008E-03  2.31111915277633E-01
 cg2d: Sum(rhs),rhsMax =  -8.55311365384116E-03  2.31114881664731E-01
 cg2d: Sum(rhs),rhsMax =  -8.55373774844867E-03  2.31117848631249E-01
 cg2d: Sum(rhs),rhsMax =  -8.55436298395829E-03  2.31120816181446E-01
 cg2d: Sum(rhs),rhsMax =  -8.55498935990298E-03  2.31123784319566E-01
 cg2d: Sum(rhs),rhsMax =  -8.55561687551371E-03  2.31126753049851E-01
 cg2d: Sum(rhs),rhsMax =  -8.55624553017218E-03  2.31129722376547E-01
 cg2d: Sum(rhs),rhsMax =  -8.55687532240648E-03  2.31132692303901E-01
 cg2d: Sum(rhs),rhsMax =  -8.55750625151745E-03  2.31135662836147E-01
 cg2d: Sum(rhs),rhsMax =  -8.55813831686011E-03  2.31138633977515E-01
 cg2d: Sum(rhs),rhsMax =  -8.55877151714416E-03  2.31141605732252E-01
 cg2d: Sum(rhs),rhsMax =  -8.55940585105160E-03  2.31144578104577E-01
 cg2d: Sum(rhs),rhsMax =  -8.56004131802347E-03  2.31147551098729E-01
 cg2d: Sum(rhs),rhsMax =  -8.56067791624043E-03  2.31150524718925E-01
 cg2d: Sum(rhs),rhsMax =  -8.56131564487810E-03  2.31153498969397E-01
 cg2d: Sum(rhs),rhsMax =  -8.56195450300442E-03  2.31156473854363E-01
 cg2d: Sum(rhs),rhsMax =  -8.56259448884227E-03  2.31159449378045E-01
 cg2d: Sum(rhs),rhsMax =  -8.56323560129147E-03  2.31162425544648E-01
 cg2d: Sum(rhs),rhsMax =  -8.56387783864742E-03  2.31165402358403E-01
 cg2d: Sum(rhs),rhsMax =  -8.56452120014397E-03  2.31168379823514E-01
 cg2d: Sum(rhs),rhsMax =  -8.56516568432717E-03  2.31171357944184E-01
 cg2d: Sum(rhs),rhsMax =  -8.56581128933693E-03  2.31174336724628E-01
 cg2d: Sum(rhs),rhsMax =  -8.56645801425382E-03  2.31177316169048E-01
 cg2d: Sum(rhs),rhsMax =  -8.56710585699596E-03  2.31180296281642E-01
 cg2d: Sum(rhs),rhsMax =  -8.56775481606976E-03  2.31183277066607E-01
 cg2d: Sum(rhs),rhsMax =  -8.56840489025375E-03  2.31186258528147E-01
 cg2d: Sum(rhs),rhsMax =  -8.56905607742540E-03  2.31189240670453E-01
 cg2d: Sum(rhs),rhsMax =  -8.56970837620797E-03  2.31192223497703E-01
 cg2d: Sum(rhs),rhsMax =  -8.57036178471443E-03  2.31195207014102E-01
 cg2d: Sum(rhs),rhsMax =  -8.57101630166181E-03  2.31198191223826E-01
 cg2d: Sum(rhs),rhsMax =  -8.57167192512119E-03  2.31201176131060E-01
 cg2d: Sum(rhs),rhsMax =  -8.57232865287860E-03  2.31204161739984E-01
 cg2d: Sum(rhs),rhsMax =  -8.57298648347908E-03  2.31207148054777E-01
 cg2d: Sum(rhs),rhsMax =  -8.57364541471789E-03  2.31210135079613E-01
 cg2d: Sum(rhs),rhsMax =  -8.57430544486651E-03  2.31213122818660E-01
 cg2d: Sum(rhs),rhsMax =  -8.57496657255803E-03  2.31216111276088E-01
 cg2d: Sum(rhs),rhsMax =  -8.57562879503156E-03  2.31219100456066E-01
 cg2d: Sum(rhs),rhsMax =  -8.57629211043444E-03  2.31222090362759E-01
 cg2d: Sum(rhs),rhsMax =  -8.57695651749191E-03  2.31225081000322E-01
 cg2d: Sum(rhs),rhsMax =  -8.57762201336222E-03  2.31228072372919E-01
 cg2d: Sum(rhs),rhsMax =  -8.57828859627844E-03  2.31231064484702E-01
 cg2d: Sum(rhs),rhsMax =  -8.57895626421158E-03  2.31234057339820E-01
 cg2d: Sum(rhs),rhsMax =  -8.57962501486466E-03  2.31237050942429E-01
 cg2d: Sum(rhs),rhsMax =  -8.58029484604714E-03  2.31240045296672E-01
 cg2d: Sum(rhs),rhsMax =  -8.58096575584747E-03  2.31243040406689E-01
 cg2d: Sum(rhs),rhsMax =  -8.58163774221373E-03  2.31246036276634E-01
 cg2d: Sum(rhs),rhsMax =  -8.58231080222684E-03  2.31249032910629E-01
 cg2d: Sum(rhs),rhsMax =  -8.58298493422804E-03  2.31252030312817E-01
 cg2d: Sum(rhs),rhsMax =  -8.58366013605475E-03  2.31255028487331E-01
 cg2d: Sum(rhs),rhsMax =  -8.58433640497220E-03  2.31258027438298E-01
 cg2d: Sum(rhs),rhsMax =  -8.58501373867118E-03  2.31261027169844E-01
 cg2d: Sum(rhs),rhsMax =  -8.58569213514142E-03  2.31264027686094E-01
 cg2d: Sum(rhs),rhsMax =  -8.58637159139594E-03  2.31267028991171E-01
 cg2d: Sum(rhs),rhsMax =  -8.58705210569483E-03  2.31270031089185E-01
 cg2d: Sum(rhs),rhsMax =  -8.58773367525996E-03  2.31273033984255E-01
 cg2d: Sum(rhs),rhsMax =  -8.58841629775998E-03  2.31276037680491E-01
 cg2d: Sum(rhs),rhsMax =  -8.58909997067624E-03  2.31279042182001E-01
 cg2d: Sum(rhs),rhsMax =  -8.58978469128292E-03  2.31282047492893E-01
 cg2d: Sum(rhs),rhsMax =  -8.59047045722756E-03  2.31285053617267E-01
(PID.TID 0000.0001)      cg2d_init_res =   2.90026824802207E-04
(PID.TID 0000.0001)      cg2d_iters(min,last) =      -1      67
(PID.TID 0000.0001)      cg2d_last_res =   9.33666347630028E-08
(PID.TID 0000.0001) // =======================================================
(PID.TID 0000.0001) // Begin MONITOR dynamic field statistics
(PID.TID 0000.0001) // =======================================================
(PID.TID 0000.0001) %MON time_tsnumber                =                 19368
(PID.TID 0000.0001) %MON time_secondsf                =   2.3241600000000E+07
(PID.TID 0000.0001) %MON dynstat_eta_max              =   3.8921773097692E-01
(PID.TID 0000.0001) %MON dynstat_eta_min              =  -1.2029452510994E-01
(PID.TID 0000.0001) %MON dynstat_eta_mean             =   9.9300697110211E-06
(PID.TID 0000.0001) %MON dynstat_eta_sd               =   1.4813104547023E-01
(PID.TID 0000.0001) %MON dynstat_eta_del2             =   3.7574131358350E-05
(PID.TID 0000.0001) %MON dynstat_uvel_max             =   1.7857578240727E-01
(PID.TID 0000.0001) %MON dynstat_uvel_min             =  -1.4545186375278E-01
(PID.TID 0000.0001) %MON dynstat_uvel_mean            =  -1.0183570654320E-08
(PID.TID 0000.0001) %MON dynstat_uvel_sd              =   6.0254869030927E-02
(PID.TID 0000.0001) %MON dynstat_uvel_del2            =   7.7123038646674E-05
(PID.TID 0000.0001) %MON dynstat_vvel_max             =   1.2820397857443E-01
(PID.TID 0000.0001) %MON dynstat_vvel_min             =  -1.5537346954571E-01
(PID.TID 0000.0001) %MON dynstat_vvel_mean            =   8.6242946828371E-08
(PID.TID 0000.0001) %MON dynstat_vvel_sd              =   5.5555591056474E-02
(PID.TID 0000.0001) %MON dynstat_vvel_del2            =   3.7340777443022E-05
(PID.TID 0000.0001) %MON dynstat_wvel_max             =   1.2014654332306E-08
(PID.TID 0000.0001) %MON dynstat_wvel_min             =  -3.9913289336982E-09
(PID.TID 0000.0001) %MON dynstat_wvel_mean            =  -3.5895153713581E-22
(PID.TID 0000.0001) %MON dynstat_wvel_sd              =   4.0688370873521E-09
(PID.TID 0000.0001) %MON dynstat_wvel_del2            =   1.1541680967615E-12
(PID.TID 0000.0001) %MON dynstat_theta_max            =   2.0000000000000E+01
(PID.TID 0000.0001) %MON dynstat_theta_min            =   2.0000000000000E+01
(PID.TID 0000.0001) %MON dynstat_theta_mean           =   2.0000000000000E+01
(PID.TID 0000.0001) %MON dynstat_theta_sd             =   3.8014036363165E-13
(PID.TID 0000.0001) %MON dynstat_theta_del2           =   0.0000000000000E+00
(PID.TID 0000.0001) %MON dynstat_salt_max             =   3.0000000000000E+01
(PID.TID 0000.0001) %MON dynstat_salt_min             =   3.0000000000000E+01
(PID.TID 0000.0001) %MON dynstat_salt_mean            =   2.9999999999999E+01
(PID.TID 0000.0001) %MON dynstat_salt_sd              =   5.5777604757167E-13
(PID.TID 0000.0001) %MON dynstat_salt_del2            =   0.0000000000000E+00
(PID.TID 0000.0001) %MON trAdv_CFL_u_max              =   1.0714102022489E-02
(PID.TID 0000.0001) %MON trAdv_CFL_v_max              =   9.3099470179349E-03
(PID.TID 0000.0001) %MON trAdv_CFL_w_max              =   3.1750468358488E-09
(PID.TID 0000.0001) %MON advcfl_uvel_max              =   1.0714546944436E-02
(PID.TID 0000.0001) %MON advcfl_vvel_max              =   9.3224081727426E-03
(PID.TID 0000.0001) %MON advcfl_wvel_max              =   5.7670340795070E-09
(PID.TID 0000.0001) %MON advcfl_W_hf_max              =   0.0000000000000E+00
(PID.TID 0000.0001) %MON pe_b_mean                    =   2.2496526701523E-05
(PID.TID 0000.0001) %MON ke_max                       =   1.5969205900517E-02
(PID.TID 0000.0001) %MON ke_mean                      =   3.2967776321450E-03
(PID.TID 0000.0001) %MON ke_vol                       =   6.8893493896486E+15
(PID.TID 0000.0001) %MON vort_r_min                   =  -1.1468700539218E-06
(PID.TID 0000.0001) %MON vort_r_max                   =   3.8121652421443E-06
(PID.TID 0000.0001) %MON vort_a_mean                  =   1.0600000000000E-04
(PID.TID 0000.0001) %MON vort_a_sd                    =   3.5823571739172E-06
(PID.TID 0000.0001) %MON vort_p_mean                  =   1.1652272308690E-04
(PID.TID 0000.0001) %MON vort_p_sd                    =   4.1792838166508E-05
(PID.TID 0000.0001) %MON surfExpan_theta_mean         =  -7.1439545637178E-21
(PID.TID 0000.0001) %MON surfExpan_salt_mean          =  -1.0726037342263E-20
(PID.TID 0000.0001) // =======================================================
(PID.TID 0000.0001) // End MONITOR dynamic field statistics
(PID.TID 0000.0001) // =======================================================
 cg2d: Sum(rhs),rhsMax =  -8.59115726643069E-03  2.31288060559225E-01
 cg2d: Sum(rhs),rhsMax =  -8.59184511553721E-03  2.31291068322860E-01
 cg2d: Sum(rhs),rhsMax =  -8.59253400264782E-03  2.31294076912267E-01
 cg2d: Sum(rhs),rhsMax =  -8.59322392462276E-03  2.31297086331534E-01
 cg2d: Sum(rhs),rhsMax =  -8.59391487921185E-03  2.31300096584746E-01
 cg2d: Sum(rhs),rhsMax =  -8.59460686367168E-03  2.31303107675998E-01
 cg2d: Sum(rhs),rhsMax =  -8.59529987531216E-03  2.31306119609357E-01
 cg2d: Sum(rhs),rhsMax =  -8.59599391175650E-03  2.31309132388910E-01
 cg2d: Sum(rhs),rhsMax =  -8.59668896948817E-03  2.31312146018725E-01
 cg2d: Sum(rhs),rhsMax =  -8.59738504652825E-03  2.31315160502875E-01
 cg2d: Sum(rhs),rhsMax =  -8.59808214010686E-03  2.31318175845431E-01
 cg2d: Sum(rhs),rhsMax =  -8.59878024720951E-03  2.31321192050457E-01
 cg2d: Sum(rhs),rhsMax =  -8.59947936507256E-03  2.31324209122008E-01
 cg2d: Sum(rhs),rhsMax =  -8.60017949036648E-03  2.31327227064153E-01
 cg2d: Sum(rhs),rhsMax =  -8.60088062171942E-03  2.31330245880938E-01
 cg2d: Sum(rhs),rhsMax =  -8.60158275526563E-03  2.31333265576421E-01
 cg2d: Sum(rhs),rhsMax =  -8.60228588811420E-03  2.31336286154645E-01
 cg2d: Sum(rhs),rhsMax =  -8.60299001792802E-03  2.31339307619663E-01
 cg2d: Sum(rhs),rhsMax =  -8.60369514099348E-03  2.31342329975514E-01
 cg2d: Sum(rhs),rhsMax =  -8.60440125530720E-03  2.31345353226233E-01
 cg2d: Sum(rhs),rhsMax =  -8.60510835791030E-03  2.31348377375853E-01
 cg2d: Sum(rhs),rhsMax =  -8.60581644541043E-03  2.31351402428422E-01
 cg2d: Sum(rhs),rhsMax =  -8.60652551506027E-03  2.31354428387949E-01
 cg2d: Sum(rhs),rhsMax =  -8.60723556384849E-03  2.31357455258473E-01
 cg2d: Sum(rhs),rhsMax =  -8.60794658890223E-03  2.31360483044013E-01
 cg2d: Sum(rhs),rhsMax =  -8.60865858742731E-03  2.31363511748587E-01
 cg2d: Sum(rhs),rhsMax =  -8.60937155611150E-03  2.31366541376206E-01
 cg2d: Sum(rhs),rhsMax =  -8.61008549173017E-03  2.31369571930891E-01
 cg2d: Sum(rhs),rhsMax =  -8.61080039170723E-03  2.31372603416644E-01
 cg2d: Sum(rhs),rhsMax =  -8.61151625289626E-03  2.31375635837470E-01
 cg2d: Sum(rhs),rhsMax =  -8.61223307214477E-03  2.31378669197374E-01
 cg2d: Sum(rhs),rhsMax =  -8.61295084670573E-03  2.31381703500353E-01
 cg2d: Sum(rhs),rhsMax =  -8.61366957312859E-03  2.31384738750405E-01
 cg2d: Sum(rhs),rhsMax =  -8.61438924868999E-03  2.31387774951515E-01
 cg2d: Sum(rhs),rhsMax =  -8.61510986949088E-03  2.31390812107675E-01
 cg2d: Sum(rhs),rhsMax =  -8.61583143365057E-03  2.31393850222870E-01
 cg2d: Sum(rhs),rhsMax =  -8.61655393687914E-03  2.31396889301081E-01
 cg2d: Sum(rhs),rhsMax =  -8.61727737701515E-03  2.31399929346282E-01
 cg2d: Sum(rhs),rhsMax =  -8.61800175015205E-03  2.31402970362451E-01
 cg2d: Sum(rhs),rhsMax =  -8.61872705378989E-03  2.31406012353554E-01
 cg2d: Sum(rhs),rhsMax =  -8.61945328411515E-03  2.31409055323563E-01
 cg2d: Sum(rhs),rhsMax =  -8.62018043859814E-03  2.31412099276434E-01
 cg2d: Sum(rhs),rhsMax =  -8.62090851375655E-03  2.31415144216134E-01
 cg2d: Sum(rhs),rhsMax =  -8.62163750620773E-03  2.31418190146618E-01
 cg2d: Sum(rhs),rhsMax =  -8.62236741278838E-03  2.31421237071836E-01
 cg2d: Sum(rhs),rhsMax =  -8.62309823081388E-03  2.31424284995737E-01
 cg2d: Sum(rhs),rhsMax =  -8.62382995677606E-03  2.31427333922264E-01
 cg2d: Sum(rhs),rhsMax =  -8.62456258722641E-03  2.31430383855362E-01
 cg2d: Sum(rhs),rhsMax =  -8.62529611924374E-03  2.31433434798971E-01
 cg2d: Sum(rhs),rhsMax =  -8.62603054938075E-03  2.31436486757019E-01
 cg2d: Sum(rhs),rhsMax =  -8.62676587456223E-03  2.31439539733444E-01
 cg2d: Sum(rhs),rhsMax =  -8.62750209101582E-03  2.31442593732165E-01
 cg2d: Sum(rhs),rhsMax =  -8.62823919580677E-03  2.31445648757117E-01
 cg2d: Sum(rhs),rhsMax =  -8.62897718576442E-03  2.31448704812200E-01
 cg2d: Sum(rhs),rhsMax =  -8.62971605763923E-03  2.31451761901350E-01
 cg2d: Sum(rhs),rhsMax =  -8.63045580798208E-03  2.31454820028468E-01
 cg2d: Sum(rhs),rhsMax =  -8.63119643337122E-03  2.31457879197464E-01
 cg2d: Sum(rhs),rhsMax =  -8.63193793131448E-03  2.31460939412245E-01
 cg2d: Sum(rhs),rhsMax =  -8.63268029770991E-03  2.31464000676708E-01
 cg2d: Sum(rhs),rhsMax =  -8.63342352940955E-03  2.31467062994752E-01
 cg2d: Sum(rhs),rhsMax =  -8.63416762301413E-03  2.31470126370273E-01
 cg2d: Sum(rhs),rhsMax =  -8.63491257541372E-03  2.31473190807154E-01
 cg2d: Sum(rhs),rhsMax =  -8.63565838291063E-03  2.31476256309283E-01
 cg2d: Sum(rhs),rhsMax =  -8.63640504293528E-03  2.31479322880550E-01
 cg2d: Sum(rhs),rhsMax =  -8.63715255106527E-03  2.31482390524822E-01
 cg2d: Sum(rhs),rhsMax =  -8.63790090525246E-03  2.31485459245975E-01
 cg2d: Sum(rhs),rhsMax =  -8.63865010130893E-03  2.31488529047883E-01
 cg2d: Sum(rhs),rhsMax =  -8.63940013591676E-03  2.31491599934409E-01
 cg2d: Sum(rhs),rhsMax =  -8.64015100591818E-03  2.31494671909419E-01
 cg2d: Sum(rhs),rhsMax =  -8.64090270779961E-03  2.31497744976763E-01
 cg2d: Sum(rhs),rhsMax =  -8.64165523828555E-03  2.31500819140310E-01
 cg2d: Sum(rhs),rhsMax =  -8.64240859460419E-03  2.31503894403896E-01
(PID.TID 0000.0001)      cg2d_init_res =   2.89324025010827E-04
(PID.TID 0000.0001)      cg2d_iters(min,last) =      -1      67
(PID.TID 0000.0001)      cg2d_last_res =   9.26410527912101E-08
(PID.TID 0000.0001) // =======================================================
(PID.TID 0000.0001) // Begin MONITOR dynamic field statistics
(PID.TID 0000.0001) // =======================================================
(PID.TID 0000.0001) %MON time_tsnumber                =                 19440
(PID.TID 0000.0001) %MON time_secondsf                =   2.3328000000000E+07
(PID.TID 0000.0001) %MON dynstat_eta_max              =   3.9025208833497E-01
(PID.TID 0000.0001) %MON dynstat_eta_min              =  -1.2052298736144E-01
(PID.TID 0000.0001) %MON dynstat_eta_mean             =   9.9996356930862E-06
(PID.TID 0000.0001) %MON dynstat_eta_sd               =   1.4847415974682E-01
(PID.TID 0000.0001) %MON dynstat_eta_del2             =   3.7645248496892E-05
(PID.TID 0000.0001) %MON dynstat_uvel_max             =   1.7876831736824E-01
(PID.TID 0000.0001) %MON dynstat_uvel_min             =  -1.4582346201604E-01
(PID.TID 0000.0001) %MON dynstat_uvel_mean            =  -9.7883814405949E-09
(PID.TID 0000.0001) %MON dynstat_uvel_sd              =   6.0393280818234E-02
(PID.TID 0000.0001) %MON dynstat_uvel_del2            =   7.7156632493477E-05
(PID.TID 0000.0001) %MON dynstat_vvel_max             =   1.2856031897100E-01
(PID.TID 0000.0001) %MON dynstat_vvel_min             =  -1.5575971719613E-01
(PID.TID 0000.0001) %MON dynstat_vvel_mean            =   8.5938542911014E-08
(PID.TID 0000.0001) %MON dynstat_vvel_sd              =   5.5681733389478E-02
(PID.TID 0000.0001) %MON dynstat_vvel_del2            =   3.7371178048073E-05
(PID.TID 0000.0001) %MON dynstat_wvel_max             =   1.1974113619654E-08
(PID.TID 0000.0001) %MON dynstat_wvel_min             =  -3.9952796875150E-09
(PID.TID 0000.0001) %MON dynstat_wvel_mean            =  -8.9531681624067E-22
(PID.TID 0000.0001) %MON dynstat_wvel_sd              =   4.0554766193604E-09
(PID.TID 0000.0001) %MON dynstat_wvel_del2            =   1.1512611898199E-12
(PID.TID 0000.0001) %MON dynstat_theta_max            =   2.0000000000000E+01
(PID.TID 0000.0001) %MON dynstat_theta_min            =   2.0000000000000E+01
(PID.TID 0000.0001) %MON dynstat_theta_mean           =   2.0000000000000E+01
(PID.TID 0000.0001) %MON dynstat_theta_sd             =   3.8014036363165E-13
(PID.TID 0000.0001) %MON dynstat_theta_del2           =   0.0000000000000E+00
(PID.TID 0000.0001) %MON dynstat_salt_max             =   3.0000000000000E+01
(PID.TID 0000.0001) %MON dynstat_salt_min             =   3.0000000000000E+01
(PID.TID 0000.0001) %MON dynstat_salt_mean            =   2.9999999999999E+01
(PID.TID 0000.0001) %MON dynstat_salt_sd              =   5.5777604757167E-13
(PID.TID 0000.0001) %MON dynstat_salt_del2            =   0.0000000000000E+00
(PID.TID 0000.0001) %MON trAdv_CFL_u_max              =   1.0725656643547E-02
(PID.TID 0000.0001) %MON trAdv_CFL_v_max              =   9.3330925616657E-03
(PID.TID 0000.0001) %MON trAdv_CFL_w_max              =   3.1643433238490E-09
(PID.TID 0000.0001) %MON advcfl_uvel_max              =   1.0726099042094E-02
(PID.TID 0000.0001) %MON advcfl_vvel_max              =   9.3455830317678E-03
(PID.TID 0000.0001) %MON advcfl_wvel_max              =   5.7475745374337E-09
(PID.TID 0000.0001) %MON advcfl_W_hf_max              =   0.0000000000000E+00
(PID.TID 0000.0001) %MON pe_b_mean                    =   2.2600864304865E-05
(PID.TID 0000.0001) %MON ke_max                       =   1.6003080277296E-02
(PID.TID 0000.0001) %MON ke_mean                      =   3.3118605139761E-03
(PID.TID 0000.0001) %MON ke_vol                       =   6.8893493896486E+15
(PID.TID 0000.0001) %MON vort_r_min                   =  -1.1498027585094E-06
(PID.TID 0000.0001) %MON vort_r_max                   =   3.8158752957422E-06
(PID.TID 0000.0001) %MON vort_a_mean                  =   1.0600000000000E-04
(PID.TID 0000.0001) %MON vort_a_sd                    =   3.5825658216341E-06
(PID.TID 0000.0001) %MON vort_p_mean                  =   1.1652272308690E-04
(PID.TID 0000.0001) %MON vort_p_sd                    =   4.1792835879838E-05
(PID.TID 0000.0001) %MON surfExpan_theta_mean         =  -1.7889260443364E-20
(PID.TID 0000.0001) %MON surfExpan_salt_mean          =  -2.6832625010798E-20
(PID.TID 0000.0001) // =======================================================
(PID.TID 0000.0001) // End MONITOR dynamic field statistics
(PID.TID 0000.0001) // =======================================================
 cg2d: Sum(rhs),rhsMax =  -8.64316277250302E-03  2.31506970771373E-01
 cg2d: Sum(rhs),rhsMax =  -8.64391776893860E-03  2.31510048246594E-01
 cg2d: Sum(rhs),rhsMax =  -8.64467358059277E-03  2.31513126833380E-01
 cg2d: Sum(rhs),rhsMax =  -8.64543020411831E-03  2.31516206535576E-01
 cg2d: Sum(rhs),rhsMax =  -8.64618763604137E-03  2.31519287357009E-01
 cg2d: Sum(rhs),rhsMax =  -8.64694587312389E-03  2.31522369301512E-01
 cg2d: Sum(rhs),rhsMax =  -8.64770491162311E-03  2.31525452372905E-01
 cg2d: Sum(rhs),rhsMax =  -8.64846474855929E-03  2.31528536575003E-01
 cg2d: Sum(rhs),rhsMax =  -8.64922538078621E-03  2.31531621911623E-01
 cg2d: Sum(rhs),rhsMax =  -8.64998680432408E-03  2.31534708386577E-01
 cg2d: Sum(rhs),rhsMax =  -8.65074901612996E-03  2.31537796003670E-01
 cg2d: Sum(rhs),rhsMax =  -8.65151201294400E-03  2.31540884766705E-01
 cg2d: Sum(rhs),rhsMax =  -8.65227579099753E-03  2.31543974679482E-01
 cg2d: Sum(rhs),rhsMax =  -8.65304034722197E-03  2.31547065745791E-01
 cg2d: Sum(rhs),rhsMax =  -8.65380567811471E-03  2.31550157969429E-01
 cg2d: Sum(rhs),rhsMax =  -8.65457177999460E-03  2.31553251354176E-01
 cg2d: Sum(rhs),rhsMax =  -8.65533864988965E-03  2.31556345903824E-01
 cg2d: Sum(rhs),rhsMax =  -8.65610628427265E-03  2.31559441622136E-01
 cg2d: Sum(rhs),rhsMax =  -8.65687467991303E-03  2.31562538512898E-01
 cg2d: Sum(rhs),rhsMax =  -8.65764383300889E-03  2.31565636579872E-01
 cg2d: Sum(rhs),rhsMax =  -8.65841374055879E-03  2.31568735826832E-01
 cg2d: Sum(rhs),rhsMax =  -8.65918439942531E-03  2.31571836257530E-01
 cg2d: Sum(rhs),rhsMax =  -8.65995580559418E-03  2.31574937875725E-01
 cg2d: Sum(rhs),rhsMax =  -8.66072795596213E-03  2.31578040685175E-01
 cg2d: Sum(rhs),rhsMax =  -8.66150084714248E-03  2.31581144689625E-01
 cg2d: Sum(rhs),rhsMax =  -8.66227447577270E-03  2.31584249892825E-01
 cg2d: Sum(rhs),rhsMax =  -8.66304883876462E-03  2.31587356298505E-01
 cg2d: Sum(rhs),rhsMax =  -8.66382393233107E-03  2.31590463910403E-01
 cg2d: Sum(rhs),rhsMax =  -8.66459975313160E-03  2.31593572732261E-01
 cg2d: Sum(rhs),rhsMax =  -8.66537629845560E-03  2.31596682767798E-01
 cg2d: Sum(rhs),rhsMax =  -8.66615356416667E-03  2.31599794020735E-01
 cg2d: Sum(rhs),rhsMax =  -8.66693154704764E-03  2.31602906494795E-01
 cg2d: Sum(rhs),rhsMax =  -8.66771024372597E-03  2.31606020193692E-01
 cg2d: Sum(rhs),rhsMax =  -8.66848965089830E-03  2.31609135121137E-01
 cg2d: Sum(rhs),rhsMax =  -8.66926976542095E-03  2.31612251280833E-01
 cg2d: Sum(rhs),rhsMax =  -8.67005058381887E-03  2.31615368676483E-01
 cg2d: Sum(rhs),rhsMax =  -8.67083210266809E-03  2.31618487311787E-01
 cg2d: Sum(rhs),rhsMax =  -8.67161431847045E-03  2.31621607190434E-01
 cg2d: Sum(rhs),rhsMax =  -8.67239722860056E-03  2.31624728316112E-01
 cg2d: Sum(rhs),rhsMax =  -8.67318082901616E-03  2.31627850692507E-01
 cg2d: Sum(rhs),rhsMax =  -8.67396511626940E-03  2.31630974323300E-01
 cg2d: Sum(rhs),rhsMax =  -8.67475008799984E-03  2.31634099212162E-01
 cg2d: Sum(rhs),rhsMax =  -8.67553574005553E-03  2.31637225362766E-01
 cg2d: Sum(rhs),rhsMax =  -8.67632206862179E-03  2.31640352778778E-01
 cg2d: Sum(rhs),rhsMax =  -8.67710907182517E-03  2.31643481463864E-01
 cg2d: Sum(rhs),rhsMax =  -8.67789674512972E-03  2.31646611421674E-01
 cg2d: Sum(rhs),rhsMax =  -8.67868508574812E-03  2.31649742655867E-01
 cg2d: Sum(rhs),rhsMax =  -8.67947409001611E-03  2.31652875170087E-01
 cg2d: Sum(rhs),rhsMax =  -8.68026375549612E-03  2.31656008967982E-01
 cg2d: Sum(rhs),rhsMax =  -8.68105407787980E-03  2.31659144053187E-01
 cg2d: Sum(rhs),rhsMax =  -8.68184505432882E-03  2.31662280429341E-01
 cg2d: Sum(rhs),rhsMax =  -8.68263668165160E-03  2.31665418100074E-01
 cg2d: Sum(rhs),rhsMax =  -8.68342895626744E-03  2.31668557069010E-01
 cg2d: Sum(rhs),rhsMax =  -8.68422187522045E-03  2.31671697339771E-01
 cg2d: Sum(rhs),rhsMax =  -8.68501543550331E-03  2.31674838915971E-01
 cg2d: Sum(rhs),rhsMax =  -8.68580963285683E-03  2.31677981801232E-01
 cg2d: Sum(rhs),rhsMax =  -8.68660446435147E-03  2.31681125999150E-01
 cg2d: Sum(rhs),rhsMax =  -8.68739992762217E-03  2.31684271513334E-01
 cg2d: Sum(rhs),rhsMax =  -8.68819601835461E-03  2.31687418347385E-01
 cg2d: Sum(rhs),rhsMax =  -8.68899273409977E-03  2.31690566504890E-01
 cg2d: Sum(rhs),rhsMax =  -8.68979007079377E-03  2.31693715989441E-01
 cg2d: Sum(rhs),rhsMax =  -8.69058802573775E-03  2.31696866804627E-01
 cg2d: Sum(rhs),rhsMax =  -8.69138659572462E-03  2.31700018954020E-01
 cg2d: Sum(rhs),rhsMax =  -8.69218577733295E-03  2.31703172441202E-01
 cg2d: Sum(rhs),rhsMax =  -8.69298556750393E-03  2.31706327269743E-01
 cg2d: Sum(rhs),rhsMax =  -8.69378596289393E-03  2.31709483443202E-01
 cg2d: Sum(rhs),rhsMax =  -8.69458696078286E-03  2.31712640965151E-01
 cg2d: Sum(rhs),rhsMax =  -8.69538855697795E-03  2.31715799839136E-01
 cg2d: Sum(rhs),rhsMax =  -8.69619074908750E-03  2.31718960068717E-01
 cg2d: Sum(rhs),rhsMax =  -8.69699353406709E-03  2.31722121657434E-01
 cg2d: Sum(rhs),rhsMax =  -8.69779690786258E-03  2.31725284608838E-01
 cg2d: Sum(rhs),rhsMax =  -8.69860086829057E-03  2.31728448926456E-01
(PID.TID 0000.0001)      cg2d_init_res =   2.88814354677443E-04
(PID.TID 0000.0001)      cg2d_iters(min,last) =      -1      67
(PID.TID 0000.0001)      cg2d_last_res =   9.20378330201336E-08
(PID.TID 0000.0001) // =======================================================
(PID.TID 0000.0001) // Begin MONITOR dynamic field statistics
(PID.TID 0000.0001) // =======================================================
(PID.TID 0000.0001) %MON time_tsnumber                =                 19512
(PID.TID 0000.0001) %MON time_secondsf                =   2.3414400000000E+07
(PID.TID 0000.0001) %MON dynstat_eta_max              =   3.9128298617887E-01
(PID.TID 0000.0001) %MON dynstat_eta_min              =  -1.2075219570026E-01
(PID.TID 0000.0001) %MON dynstat_eta_mean             =   1.0074471481465E-05
(PID.TID 0000.0001) %MON dynstat_eta_sd               =   1.4881621630035E-01
(PID.TID 0000.0001) %MON dynstat_eta_del2             =   3.7716185715649E-05
(PID.TID 0000.0001) %MON dynstat_uvel_max             =   1.7895802542138E-01
(PID.TID 0000.0001) %MON dynstat_uvel_min             =  -1.4619037915133E-01
(PID.TID 0000.0001) %MON dynstat_uvel_mean            =  -9.7193697686407E-09
(PID.TID 0000.0001) %MON dynstat_uvel_sd              =   6.0530915541015E-02
(PID.TID 0000.0001) %MON dynstat_uvel_del2            =   7.7190784393615E-05
(PID.TID 0000.0001) %MON dynstat_vvel_max             =   1.2890968116221E-01
(PID.TID 0000.0001) %MON dynstat_vvel_min             =  -1.5614460799449E-01
(PID.TID 0000.0001) %MON dynstat_vvel_mean            =   8.5339048794252E-08
(PID.TID 0000.0001) %MON dynstat_vvel_sd              =   5.5808135857832E-02
(PID.TID 0000.0001) %MON dynstat_vvel_del2            =   3.7403341192498E-05
(PID.TID 0000.0001) %MON dynstat_wvel_max             =   1.1930857066764E-08
(PID.TID 0000.0001) %MON dynstat_wvel_min             =  -3.9834746455017E-09
(PID.TID 0000.0001) %MON dynstat_wvel_mean            =   8.8331546521658E-21
(PID.TID 0000.0001) %MON dynstat_wvel_sd              =   4.0414125178467E-09
(PID.TID 0000.0001) %MON dynstat_wvel_del2            =   1.1484054773688E-12
(PID.TID 0000.0001) %MON dynstat_theta_max            =   2.0000000000000E+01
(PID.TID 0000.0001) %MON dynstat_theta_min            =   2.0000000000000E+01
(PID.TID 0000.0001) %MON dynstat_theta_mean           =   2.0000000000000E+01
(PID.TID 0000.0001) %MON dynstat_theta_sd             =   3.8014036363165E-13
(PID.TID 0000.0001) %MON dynstat_theta_del2           =   0.0000000000000E+00
(PID.TID 0000.0001) %MON dynstat_salt_max             =   3.0000000000000E+01
(PID.TID 0000.0001) %MON dynstat_salt_min             =   3.0000000000000E+01
(PID.TID 0000.0001) %MON dynstat_salt_mean            =   2.9999999999999E+01
(PID.TID 0000.0001) %MON dynstat_salt_sd              =   5.5777604757167E-13
(PID.TID 0000.0001) %MON dynstat_salt_del2            =   0.0000000000000E+00
(PID.TID 0000.0001) %MON trAdv_CFL_u_max              =   1.0737040717854E-02
(PID.TID 0000.0001) %MON trAdv_CFL_v_max              =   9.3561573349405E-03
(PID.TID 0000.0001) %MON trAdv_CFL_w_max              =   3.1529229582026E-09
(PID.TID 0000.0001) %MON advcfl_uvel_max              =   1.0737481525283E-02
(PID.TID 0000.0001) %MON advcfl_vvel_max              =   9.3686764796695E-03
(PID.TID 0000.0001) %MON advcfl_wvel_max              =   5.7268113920465E-09
(PID.TID 0000.0001) %MON advcfl_W_hf_max              =   0.0000000000000E+00
(PID.TID 0000.0001) %MON pe_b_mean                    =   2.2705120546734E-05
(PID.TID 0000.0001) %MON ke_max                       =   1.6036594060136E-02
(PID.TID 0000.0001) %MON ke_mean                      =   3.3269458995219E-03
(PID.TID 0000.0001) %MON ke_vol                       =   6.8893493896486E+15
(PID.TID 0000.0001) %MON vort_r_min                   =  -1.1527431988820E-06
(PID.TID 0000.0001) %MON vort_r_max                   =   3.8195319771239E-06
(PID.TID 0000.0001) %MON vort_a_mean                  =   1.0600000000000E-04
(PID.TID 0000.0001) %MON vort_a_sd                    =   3.5827753826883E-06
(PID.TID 0000.0001) %MON vort_p_mean                  =   1.1652272308690E-04
(PID.TID 0000.0001) %MON vort_p_sd                    =   4.1792832888243E-05
(PID.TID 0000.0001) %MON surfExpan_theta_mean         =   1.7664092164280E-19
(PID.TID 0000.0001) %MON surfExpan_salt_mean          =   2.6495190979464E-19
(PID.TID 0000.0001) // =======================================================
(PID.TID 0000.0001) // End MONITOR dynamic field statistics
(PID.TID 0000.0001) // =======================================================
 cg2d: Sum(rhs),rhsMax =  -8.69940541155747E-03  2.31731614613831E-01
 cg2d: Sum(rhs),rhsMax =  -8.70021053420187E-03  2.31734781674489E-01
 cg2d: Sum(rhs),rhsMax =  -8.70101623401599E-03  2.31737950111951E-01
 cg2d: Sum(rhs),rhsMax =  -8.70182250779668E-03  2.31741119929733E-01
 cg2d: Sum(rhs),rhsMax =  -8.70262935131196E-03  2.31744291131350E-01
 cg2d: Sum(rhs),rhsMax =  -8.70343676214178E-03  2.31747463720318E-01
 cg2d: Sum(rhs),rhsMax =  -8.70424473717718E-03  2.31750637700130E-01
 cg2d: Sum(rhs),rhsMax =  -8.70505327337792E-03  2.31753813074295E-01
 cg2d: Sum(rhs),rhsMax =  -8.70586236764344E-03  2.31756989846299E-01
 cg2d: Sum(rhs),rhsMax =  -8.70667201690366E-03  2.31760168019640E-01
 cg2d: Sum(rhs),rhsMax =  -8.70748221750503E-03  2.31763347597803E-01
 cg2d: Sum(rhs),rhsMax =  -8.70829296703111E-03  2.31766528584252E-01
 cg2d: Sum(rhs),rhsMax =  -8.70910426234481E-03  2.31769710982486E-01
 cg2d: Sum(rhs),rhsMax =  -8.70991609971812E-03  2.31772894795958E-01
 cg2d: Sum(rhs),rhsMax =  -8.71072847686321E-03  2.31776080028139E-01
 cg2d: Sum(rhs),rhsMax =  -8.71154139030932E-03  2.31779266682483E-01
 cg2d: Sum(rhs),rhsMax =  -8.71235483711808E-03  2.31782454762455E-01
 cg2d: Sum(rhs),rhsMax =  -8.71316881405605E-03  2.31785644271502E-01
 cg2d: Sum(rhs),rhsMax =  -8.71398331803542E-03  2.31788835213069E-01
 cg2d: Sum(rhs),rhsMax =  -8.71479834664817E-03  2.31792027590595E-01
 cg2d: Sum(rhs),rhsMax =  -8.71561389643801E-03  2.31795221407518E-01
 cg2d: Sum(rhs),rhsMax =  -8.71642996467179E-03  2.31798416667265E-01
 cg2d: Sum(rhs),rhsMax =  -8.71724654787508E-03  2.31801613373265E-01
 cg2d: Sum(rhs),rhsMax =  -8.71806364299739E-03  2.31804811528938E-01
 cg2d: Sum(rhs),rhsMax =  -8.71888124753337E-03  2.31808011137698E-01
 cg2d: Sum(rhs),rhsMax =  -8.71969935823007E-03  2.31811212202959E-01
 cg2d: Sum(rhs),rhsMax =  -8.72051797222549E-03  2.31814414728122E-01
 cg2d: Sum(rhs),rhsMax =  -8.72133708656875E-03  2.31817618716593E-01
 cg2d: Sum(rhs),rhsMax =  -8.72215669869737E-03  2.31820824171760E-01
 cg2d: Sum(rhs),rhsMax =  -8.72297680485899E-03  2.31824031097021E-01
 cg2d: Sum(rhs),rhsMax =  -8.72379740279761E-03  2.31827239495757E-01
 cg2d: Sum(rhs),rhsMax =  -8.72461848876324E-03  2.31830449371347E-01
 cg2d: Sum(rhs),rhsMax =  -8.72544006089467E-03  2.31833660727175E-01
 cg2d: Sum(rhs),rhsMax =  -8.72626211521098E-03  2.31836873566596E-01
 cg2d: Sum(rhs),rhsMax =  -8.72708464955700E-03  2.31840087892985E-01
 cg2d: Sum(rhs),rhsMax =  -8.72790766085501E-03  2.31843303709703E-01
 cg2d: Sum(rhs),rhsMax =  -8.72873114599453E-03  2.31846521020102E-01
 cg2d: Sum(rhs),rhsMax =  -8.72955510203645E-03  2.31849739827529E-01
 cg2d: Sum(rhs),rhsMax =  -8.73037952645625E-03  2.31852960135328E-01
 cg2d: Sum(rhs),rhsMax =  -8.73120441637884E-03  2.31856181946844E-01
 cg2d: Sum(rhs),rhsMax =  -8.73202976872413E-03  2.31859405265410E-01
 cg2d: Sum(rhs),rhsMax =  -8.73285558047890E-03  2.31862630094350E-01
 cg2d: Sum(rhs),rhsMax =  -8.73368184949376E-03  2.31865856436990E-01
 cg2d: Sum(rhs),rhsMax =  -8.73450857172841E-03  2.31869084296649E-01
 cg2d: Sum(rhs),rhsMax =  -8.73533574570233E-03  2.31872313676644E-01
 cg2d: Sum(rhs),rhsMax =  -8.73616336788390E-03  2.31875544580276E-01
 cg2d: Sum(rhs),rhsMax =  -8.73699143546191E-03  2.31878777010851E-01
 cg2d: Sum(rhs),rhsMax =  -8.73781994608498E-03  2.31882010971665E-01
 cg2d: Sum(rhs),rhsMax =  -8.73864889601886E-03  2.31885246466012E-01
 cg2d: Sum(rhs),rhsMax =  -8.73947828323566E-03  2.31888483497182E-01
 cg2d: Sum(rhs),rhsMax =  -8.74030810493587E-03  2.31891722068451E-01
 cg2d: Sum(rhs),rhsMax =  -8.74113835799606E-03  2.31894962183098E-01
 cg2d: Sum(rhs),rhsMax =  -8.74196904007246E-03  2.31898203844392E-01
 cg2d: Sum(rhs),rhsMax =  -8.74280014834313E-03  2.31901447055602E-01
 cg2d: Sum(rhs),rhsMax =  -8.74363167974327E-03  2.31904691819990E-01
 cg2d: Sum(rhs),rhsMax =  -8.74446363152969E-03  2.31907938140808E-01
 cg2d: Sum(rhs),rhsMax =  -8.74529600122339E-03  2.31911186021306E-01
 cg2d: Sum(rhs),rhsMax =  -8.74612878610096E-03  2.31914435464725E-01
 cg2d: Sum(rhs),rhsMax =  -8.74696198335051E-03  2.31917686474316E-01
 cg2d: Sum(rhs),rhsMax =  -8.74779559005225E-03  2.31920939053300E-01
 cg2d: Sum(rhs),rhsMax =  -8.74862960376212E-03  2.31924193204913E-01
 cg2d: Sum(rhs),rhsMax =  -8.74946402154695E-03  2.31927448932373E-01
 cg2d: Sum(rhs),rhsMax =  -8.75029884128267E-03  2.31930706238902E-01
 cg2d: Sum(rhs),rhsMax =  -8.75113405986687E-03  2.31933965127710E-01
 cg2d: Sum(rhs),rhsMax =  -8.75196967456012E-03  2.31937225602002E-01
 cg2d: Sum(rhs),rhsMax =  -8.75280568334274E-03  2.31940487664991E-01
 cg2d: Sum(rhs),rhsMax =  -8.75364208267682E-03  2.31943751319855E-01
 cg2d: Sum(rhs),rhsMax =  -8.75447887074267E-03  2.31947016569794E-01
 cg2d: Sum(rhs),rhsMax =  -8.75531604435466E-03  2.31950283417999E-01
 cg2d: Sum(rhs),rhsMax =  -8.75615360093274E-03  2.31953551867637E-01
 cg2d: Sum(rhs),rhsMax =  -8.75699153807778E-03  2.31956821921891E-01
 cg2d: Sum(rhs),rhsMax =  -8.75782985275480E-03  2.31960093583927E-01
(PID.TID 0000.0001)      cg2d_init_res =   2.88495011820911E-04
(PID.TID 0000.0001)      cg2d_iters(min,last) =      -1      67
(PID.TID 0000.0001)      cg2d_last_res =   9.15532779073550E-08
(PID.TID 0000.0001) // =======================================================
(PID.TID 0000.0001) // Begin MONITOR dynamic field statistics
(PID.TID 0000.0001) // =======================================================
(PID.TID 0000.0001) %MON time_tsnumber                =                 19584
(PID.TID 0000.0001) %MON time_secondsf                =   2.3500800000000E+07
(PID.TID 0000.0001) %MON dynstat_eta_max              =   3.9231029782300E-01
(PID.TID 0000.0001) %MON dynstat_eta_min              =  -1.2098230915559E-01
(PID.TID 0000.0001) %MON dynstat_eta_mean             =   1.0153246007624E-05
(PID.TID 0000.0001) %MON dynstat_eta_sd               =   1.4915712687666E-01
(PID.TID 0000.0001) %MON dynstat_eta_del2             =   3.7787003707584E-05
(PID.TID 0000.0001) %MON dynstat_uvel_max             =   1.7914604289860E-01
(PID.TID 0000.0001) %MON dynstat_uvel_min             =  -1.4655240296053E-01
(PID.TID 0000.0001) %MON dynstat_uvel_mean            =  -1.0048137320674E-08
(PID.TID 0000.0001) %MON dynstat_uvel_sd              =   6.0667566931042E-02
(PID.TID 0000.0001) %MON dynstat_uvel_del2            =   7.7225849038149E-05
(PID.TID 0000.0001) %MON dynstat_vvel_max             =   1.2925274775700E-01
(PID.TID 0000.0001) %MON dynstat_vvel_min             =  -1.5652747286688E-01
(PID.TID 0000.0001) %MON dynstat_vvel_mean            =   8.4499561193218E-08
(PID.TID 0000.0001) %MON dynstat_vvel_sd              =   5.5935007923141E-02
(PID.TID 0000.0001) %MON dynstat_vvel_del2            =   3.7436761258231E-05
(PID.TID 0000.0001) %MON dynstat_wvel_max             =   1.1884800675907E-08
(PID.TID 0000.0001) %MON dynstat_wvel_min             =  -3.9503638853785E-09
(PID.TID 0000.0001) %MON dynstat_wvel_mean            =   1.1343647404121E-22
(PID.TID 0000.0001) %MON dynstat_wvel_sd              =   4.0266146714110E-09
(PID.TID 0000.0001) %MON dynstat_wvel_del2            =   1.1455970207840E-12
(PID.TID 0000.0001) %MON dynstat_theta_max            =   2.0000000000000E+01
(PID.TID 0000.0001) %MON dynstat_theta_min            =   2.0000000000000E+01
(PID.TID 0000.0001) %MON dynstat_theta_mean           =   2.0000000000000E+01
(PID.TID 0000.0001) %MON dynstat_theta_sd             =   3.8014036363165E-13
(PID.TID 0000.0001) %MON dynstat_theta_del2           =   0.0000000000000E+00
(PID.TID 0000.0001) %MON dynstat_salt_max             =   3.0000000000000E+01
(PID.TID 0000.0001) %MON dynstat_salt_min             =   3.0000000000000E+01
(PID.TID 0000.0001) %MON dynstat_salt_mean            =   2.9999999999999E+01
(PID.TID 0000.0001) %MON dynstat_salt_sd              =   5.5777604757167E-13
(PID.TID 0000.0001) %MON dynstat_salt_del2            =   0.0000000000000E+00
(PID.TID 0000.0001) %MON trAdv_CFL_u_max              =   1.0748322405977E-02
(PID.TID 0000.0001) %MON trAdv_CFL_v_max              =   9.3791012872868E-03
(PID.TID 0000.0001) %MON trAdv_CFL_w_max              =   3.1407625561882E-09
(PID.TID 0000.0001) %MON advcfl_uvel_max              =   1.0748762573916E-02
(PID.TID 0000.0001) %MON advcfl_vvel_max              =   9.3916483720126E-03
(PID.TID 0000.0001) %MON advcfl_wvel_max              =   5.7047043244354E-09
(PID.TID 0000.0001) %MON advcfl_W_hf_max              =   0.0000000000000E+00
(PID.TID 0000.0001) %MON pe_b_mean                    =   2.2809266209669E-05
(PID.TID 0000.0001) %MON ke_max                       =   1.6069951758577E-02
(PID.TID 0000.0001) %MON ke_mean                      =   3.3420327877291E-03
(PID.TID 0000.0001) %MON ke_vol                       =   6.8893493896486E+15
(PID.TID 0000.0001) %MON vort_r_min                   =  -1.1556947429992E-06
(PID.TID 0000.0001) %MON vort_r_max                   =   3.8231602553137E-06
(PID.TID 0000.0001) %MON vort_a_mean                  =   1.0600000000000E-04
(PID.TID 0000.0001) %MON vort_a_sd                    =   3.5829860070398E-06
(PID.TID 0000.0001) %MON vort_p_mean                  =   1.1652272308690E-04
(PID.TID 0000.0001) %MON vort_p_sd                    =   4.1792829244519E-05
(PID.TID 0000.0001) %MON surfExpan_theta_mean         =   2.2756340022233E-21
(PID.TID 0000.0001) %MON surfExpan_salt_mean          =   3.3982915247242E-21
(PID.TID 0000.0001) // =======================================================
(PID.TID 0000.0001) // End MONITOR dynamic field statistics
(PID.TID 0000.0001) // =======================================================
 cg2d: Sum(rhs),rhsMax =  -8.75866854303421E-03  2.31963366856909E-01
 cg2d: Sum(rhs),rhsMax =  -8.75950760560065E-03  2.31966641743993E-01
 cg2d: Sum(rhs),rhsMax =  -8.76034703829364E-03  2.31969918248330E-01
 cg2d: Sum(rhs),rhsMax =  -8.76118683849289E-03  2.31973196373072E-01
 cg2d: Sum(rhs),rhsMax =  -8.76202700378943E-03  2.31976476121357E-01
 cg2d: Sum(rhs),rhsMax =  -8.76286753104583E-03  2.31979757496316E-01
 cg2d: Sum(rhs),rhsMax =  -8.76370841852285E-03  2.31983040501092E-01
 cg2d: Sum(rhs),rhsMax =  -8.76454966325867E-03  2.31986325138794E-01
 cg2d: Sum(rhs),rhsMax =  -8.76539126262433E-03  2.31989611412551E-01
 cg2d: Sum(rhs),rhsMax =  -8.76623321429882E-03  2.31992899325479E-01
 cg2d: Sum(rhs),rhsMax =  -8.76707551556094E-03  2.31996188880673E-01
 cg2d: Sum(rhs),rhsMax =  -8.76791816396740E-03  2.31999480081241E-01
 cg2d: Sum(rhs),rhsMax =  -8.76876115704042E-03  2.32002772930287E-01
 cg2d: Sum(rhs),rhsMax =  -8.76960449226061E-03  2.32006067430891E-01
 cg2d: Sum(rhs),rhsMax =  -8.77044816687325E-03  2.32009363586150E-01
 cg2d: Sum(rhs),rhsMax =  -8.77129217881610E-03  2.32012661399129E-01
 cg2d: Sum(rhs),rhsMax =  -8.77213652550303E-03  2.32015960872918E-01
 cg2d: Sum(rhs),rhsMax =  -8.77298120475424E-03  2.32019262010568E-01
 cg2d: Sum(rhs),rhsMax =  -8.77382621355196E-03  2.32022564815163E-01
 cg2d: Sum(rhs),rhsMax =  -8.77467154967139E-03  2.32025869289739E-01
 cg2d: Sum(rhs),rhsMax =  -8.77551721050729E-03  2.32029175437363E-01
 cg2d: Sum(rhs),rhsMax =  -8.77636319406438E-03  2.32032483261071E-01
 cg2d: Sum(rhs),rhsMax =  -8.77720949750109E-03  2.32035792763907E-01
 cg2d: Sum(rhs),rhsMax =  -8.77805611831012E-03  2.32039103948906E-01
 cg2d: Sum(rhs),rhsMax =  -8.77890305472795E-03  2.32042416819098E-01
 cg2d: Sum(rhs),rhsMax =  -8.77975030379389E-03  2.32045731377500E-01
 cg2d: Sum(rhs),rhsMax =  -8.78059786325152E-03  2.32049047627137E-01
 cg2d: Sum(rhs),rhsMax =  -8.78144573069616E-03  2.32052365571009E-01
 cg2d: Sum(rhs),rhsMax =  -8.78229390384178E-03  2.32055685212131E-01
 cg2d: Sum(rhs),rhsMax =  -8.78314238006523E-03  2.32059006553503E-01
 cg2d: Sum(rhs),rhsMax =  -8.78399115699858E-03  2.32062329598117E-01
 cg2d: Sum(rhs),rhsMax =  -8.78484023240989E-03  2.32065654348959E-01
 cg2d: Sum(rhs),rhsMax =  -8.78568960430992E-03  2.32068980809011E-01
 cg2d: Sum(rhs),rhsMax =  -8.78653926974463E-03  2.32072308981260E-01
 cg2d: Sum(rhs),rhsMax =  -8.78738922656815E-03  2.32075638868661E-01
 cg2d: Sum(rhs),rhsMax =  -8.78823947262820E-03  2.32078970474194E-01
 cg2d: Sum(rhs),rhsMax =  -8.78909000540828E-03  2.32082303800806E-01
 cg2d: Sum(rhs),rhsMax =  -8.78994082289232E-03  2.32085638851461E-01
 cg2d: Sum(rhs),rhsMax =  -8.79079192251682E-03  2.32088975629101E-01
 cg2d: Sum(rhs),rhsMax =  -8.79164330185418E-03  2.32092314136665E-01
 cg2d: Sum(rhs),rhsMax =  -8.79249495905697E-03  2.32095654377095E-01
 cg2d: Sum(rhs),rhsMax =  -8.79334689104000E-03  2.32098996353319E-01
 cg2d: Sum(rhs),rhsMax =  -8.79419909616424E-03  2.32102340068261E-01
 cg2d: Sum(rhs),rhsMax =  -8.79505157188593E-03  2.32105685524837E-01
 cg2d: Sum(rhs),rhsMax =  -8.79590431631213E-03  2.32109032725962E-01
 cg2d: Sum(rhs),rhsMax =  -8.79675732672642E-03  2.32112381674546E-01
 cg2d: Sum(rhs),rhsMax =  -8.79761060130521E-03  2.32115732373480E-01
 cg2d: Sum(rhs),rhsMax =  -8.79846413715493E-03  2.32119084825665E-01
 cg2d: Sum(rhs),rhsMax =  -8.79931793286416E-03  2.32122439033992E-01
 cg2d: Sum(rhs),rhsMax =  -8.80017198534801E-03  2.32125795001337E-01
 cg2d: Sum(rhs),rhsMax =  -8.80102629311245E-03  2.32129152730580E-01
 cg2d: Sum(rhs),rhsMax =  -8.80188085359774E-03  2.32132512224599E-01
 cg2d: Sum(rhs),rhsMax =  -8.80273566459999E-03  2.32135873486247E-01
 cg2d: Sum(rhs),rhsMax =  -8.80359072391305E-03  2.32139236518389E-01
 cg2d: Sum(rhs),rhsMax =  -8.80444602916297E-03  2.32142601323875E-01
 cg2d: Sum(rhs),rhsMax =  -8.80530157876895E-03  2.32145967905556E-01
 cg2d: Sum(rhs),rhsMax =  -8.80615736968562E-03  2.32149336266275E-01
 cg2d: Sum(rhs),rhsMax =  -8.80701340009762E-03  2.32152706408857E-01
 cg2d: Sum(rhs),rhsMax =  -8.80786966838898E-03  2.32156078336144E-01
 cg2d: Sum(rhs),rhsMax =  -8.80872617172647E-03  2.32159452050946E-01
 cg2d: Sum(rhs),rhsMax =  -8.80958290792763E-03  2.32162827556087E-01
 cg2d: Sum(rhs),rhsMax =  -8.81043987545145E-03  2.32166204854378E-01
 cg2d: Sum(rhs),rhsMax =  -8.81129707167591E-03  2.32169583948623E-01
 cg2d: Sum(rhs),rhsMax =  -8.81215449444035E-03  2.32172964841617E-01
 cg2d: Sum(rhs),rhsMax =  -8.81301214158002E-03  2.32176347536160E-01
 cg2d: Sum(rhs),rhsMax =  -8.81387001106094E-03  2.32179732035031E-01
 cg2d: Sum(rhs),rhsMax =  -8.81472810121179E-03  2.32183118341015E-01
 cg2d: Sum(rhs),rhsMax =  -8.81558640884786E-03  2.32186506456886E-01
 cg2d: Sum(rhs),rhsMax =  -8.81644493257519E-03  2.32189896385411E-01
 cg2d: Sum(rhs),rhsMax =  -8.81730367020836E-03  2.32193288129352E-01
 cg2d: Sum(rhs),rhsMax =  -8.81816261988269E-03  2.32196681691469E-01
 cg2d: Sum(rhs),rhsMax =  -8.81902177918266E-03  2.32200077074506E-01
(PID.TID 0000.0001)      cg2d_init_res =   2.88350415130694E-04
(PID.TID 0000.0001)      cg2d_iters(min,last) =      -1      67
(PID.TID 0000.0001)      cg2d_last_res =   9.11818380259703E-08
(PID.TID 0000.0001) // =======================================================
(PID.TID 0000.0001) // Begin MONITOR dynamic field statistics
(PID.TID 0000.0001) // =======================================================
(PID.TID 0000.0001) %MON time_tsnumber                =                 19656
(PID.TID 0000.0001) %MON time_secondsf                =   2.3587200000000E+07
(PID.TID 0000.0001) %MON dynstat_eta_max              =   3.9333391871716E-01
(PID.TID 0000.0001) %MON dynstat_eta_min              =  -1.2121340043747E-01
(PID.TID 0000.0001) %MON dynstat_eta_mean             =   1.0234788206420E-05
(PID.TID 0000.0001) %MON dynstat_eta_sd               =   1.4949681248088E-01
(PID.TID 0000.0001) %MON dynstat_eta_del2             =   3.7857757943566E-05
(PID.TID 0000.0001) %MON dynstat_uvel_max             =   1.7933351791182E-01
(PID.TID 0000.0001) %MON dynstat_uvel_min             =  -1.4690962705145E-01
(PID.TID 0000.0001) %MON dynstat_uvel_mean            =  -1.0817392797373E-08
(PID.TID 0000.0001) %MON dynstat_uvel_sd              =   6.0803073507342E-02
(PID.TID 0000.0001) %MON dynstat_uvel_del2            =   7.7262170702972E-05
(PID.TID 0000.0001) %MON dynstat_vvel_max             =   1.2959037230282E-01
(PID.TID 0000.0001) %MON dynstat_vvel_min             =  -1.5690760079403E-01
(PID.TID 0000.0001) %MON dynstat_vvel_mean            =   8.3489774770484E-08
(PID.TID 0000.0001) %MON dynstat_vvel_sd              =   5.6062509335903E-02
(PID.TID 0000.0001) %MON dynstat_vvel_del2            =   3.7470912118601E-05
(PID.TID 0000.0001) %MON dynstat_wvel_max             =   1.1836183826672E-08
(PID.TID 0000.0001) %MON dynstat_wvel_min             =  -3.8885051824036E-09
(PID.TID 0000.0001) %MON dynstat_wvel_mean            =  -1.1750570491939E-22
(PID.TID 0000.0001) %MON dynstat_wvel_sd              =   4.0110964832873E-09
(PID.TID 0000.0001) %MON dynstat_wvel_del2            =   1.1428712903562E-12
(PID.TID 0000.0001) %MON dynstat_theta_max            =   2.0000000000000E+01
(PID.TID 0000.0001) %MON dynstat_theta_min            =   2.0000000000000E+01
(PID.TID 0000.0001) %MON dynstat_theta_mean           =   2.0000000000000E+01
(PID.TID 0000.0001) %MON dynstat_theta_sd             =   3.8014036363165E-13
(PID.TID 0000.0001) %MON dynstat_theta_del2           =   0.0000000000000E+00
(PID.TID 0000.0001) %MON dynstat_salt_max             =   3.0000000000000E+01
(PID.TID 0000.0001) %MON dynstat_salt_min             =   3.0000000000000E+01
(PID.TID 0000.0001) %MON dynstat_salt_mean            =   2.9999999999999E+01
(PID.TID 0000.0001) %MON dynstat_salt_sd              =   5.5777604757167E-13
(PID.TID 0000.0001) %MON dynstat_salt_del2            =   0.0000000000000E+00
(PID.TID 0000.0001) %MON trAdv_CFL_u_max              =   1.0759570590550E-02
(PID.TID 0000.0001) %MON trAdv_CFL_v_max              =   9.4018818410298E-03
(PID.TID 0000.0001) %MON trAdv_CFL_w_max              =   3.1279239492143E-09
(PID.TID 0000.0001) %MON advcfl_uvel_max              =   1.0760011074709E-02
(PID.TID 0000.0001) %MON advcfl_vvel_max              =   9.4144560476416E-03
(PID.TID 0000.0001) %MON advcfl_wvel_max              =   5.6813682368025E-09
(PID.TID 0000.0001) %MON advcfl_W_hf_max              =   0.0000000000000E+00
(PID.TID 0000.0001) %MON pe_b_mean                    =   2.2913274675457E-05
(PID.TID 0000.0001) %MON ke_max                       =   1.6103359058281E-02
(PID.TID 0000.0001) %MON ke_mean                      =   3.3571201116484E-03
(PID.TID 0000.0001) %MON ke_vol                       =   6.8893493896486E+15
(PID.TID 0000.0001) %MON vort_r_min                   =  -1.1586607970952E-06
(PID.TID 0000.0001) %MON vort_r_max                   =   3.8267852781232E-06
(PID.TID 0000.0001) %MON vort_a_mean                  =   1.0600000000000E-04
(PID.TID 0000.0001) %MON vort_a_sd                    =   3.5831978338916E-06
(PID.TID 0000.0001) %MON vort_p_mean                  =   1.1652272308690E-04
(PID.TID 0000.0001) %MON vort_p_sd                    =   4.1792825055365E-05
(PID.TID 0000.0001) %MON surfExpan_theta_mean         =  -2.3460566822564E-21
(PID.TID 0000.0001) %MON surfExpan_salt_mean          =  -3.5193995865749E-21
(PID.TID 0000.0001) // =======================================================
(PID.TID 0000.0001) // End MONITOR dynamic field statistics
(PID.TID 0000.0001) // =======================================================
 cg2d: Sum(rhs),rhsMax =  -8.81988114606223E-03  2.32203474281212E-01
 cg2d: Sum(rhs),rhsMax =  -8.82074071839788E-03  2.32206873314319E-01
 cg2d: Sum(rhs),rhsMax =  -8.82160049429381E-03  2.32210274176564E-01
 cg2d: Sum(rhs),rhsMax =  -8.82246047177443E-03  2.32213676870676E-01
 cg2d: Sum(rhs),rhsMax =  -8.82332064854359E-03  2.32217081399358E-01
 cg2d: Sum(rhs),rhsMax =  -8.82418102243749E-03  2.32220487765341E-01
 cg2d: Sum(rhs),rhsMax =  -8.82504159184207E-03  2.32223895971320E-01
 cg2d: Sum(rhs),rhsMax =  -8.82590235432958E-03  2.32227306020003E-01
 cg2d: Sum(rhs),rhsMax =  -8.82676330757737E-03  2.32230717914079E-01
 cg2d: Sum(rhs),rhsMax =  -8.82762445021351E-03  2.32234131656240E-01
 cg2d: Sum(rhs),rhsMax =  -8.82848578005526E-03  2.32237547249170E-01
 cg2d: Sum(rhs),rhsMax =  -8.82934729496112E-03  2.32240964695540E-01
 cg2d: Sum(rhs),rhsMax =  -8.83020899311511E-03  2.32244383998018E-01
 cg2d: Sum(rhs),rhsMax =  -8.83107087180294E-03  2.32247805159272E-01
 cg2d: Sum(rhs),rhsMax =  -8.83193293003652E-03  2.32251228181956E-01
 cg2d: Sum(rhs),rhsMax =  -8.83279516528068E-03  2.32254653068723E-01
 cg2d: Sum(rhs),rhsMax =  -8.83365757539239E-03  2.32258079822221E-01
 cg2d: Sum(rhs),rhsMax =  -8.83452015844862E-03  2.32261508445083E-01
 cg2d: Sum(rhs),rhsMax =  -8.83538291265499E-03  2.32264938939939E-01
 cg2d: Sum(rhs),rhsMax =  -8.83624583616212E-03  2.32268371309421E-01
 cg2d: Sum(rhs),rhsMax =  -8.83710892650007E-03  2.32271805556143E-01
 cg2d: Sum(rhs),rhsMax =  -8.83797218215907E-03  2.32275241682724E-01
 cg2d: Sum(rhs),rhsMax =  -8.83883560119610E-03  2.32278679691764E-01
 cg2d: Sum(rhs),rhsMax =  -8.83969918153298E-03  2.32282119585871E-01
 cg2d: Sum(rhs),rhsMax =  -8.84056292096356E-03  2.32285561367629E-01
 cg2d: Sum(rhs),rhsMax =  -8.84142681790324E-03  2.32289005039639E-01
 cg2d: Sum(rhs),rhsMax =  -8.84229087028413E-03  2.32292450604472E-01
 cg2d: Sum(rhs),rhsMax =  -8.84315507611890E-03  2.32295898064705E-01
 cg2d: Sum(rhs),rhsMax =  -8.84401943352554E-03  2.32299347422908E-01
 cg2d: Sum(rhs),rhsMax =  -8.84488394084699E-03  2.32302798681648E-01
 cg2d: Sum(rhs),rhsMax =  -8.84574859555457E-03  2.32306251843468E-01
 cg2d: Sum(rhs),rhsMax =  -8.84661339599498E-03  2.32309706910936E-01
 cg2d: Sum(rhs),rhsMax =  -8.84747834070243E-03  2.32313163886582E-01
 cg2d: Sum(rhs),rhsMax =  -8.84834342720551E-03  2.32316622772950E-01
 cg2d: Sum(rhs),rhsMax =  -8.84920865397412E-03  2.32320083572565E-01
 cg2d: Sum(rhs),rhsMax =  -8.85007401920275E-03  2.32323546287950E-01
 cg2d: Sum(rhs),rhsMax =  -8.85093952067813E-03  2.32327010921626E-01
 cg2d: Sum(rhs),rhsMax =  -8.85180515653480E-03  2.32330477476105E-01
 cg2d: Sum(rhs),rhsMax =  -8.85267092465468E-03  2.32333945953895E-01
 cg2d: Sum(rhs),rhsMax =  -8.85353682399147E-03  2.32337416357486E-01
 cg2d: Sum(rhs),rhsMax =  -8.85440285212522E-03  2.32340888689376E-01
 cg2d: Sum(rhs),rhsMax =  -8.85526900670366E-03  2.32344362952050E-01
 cg2d: Sum(rhs),rhsMax =  -8.85613528740997E-03  2.32347839147983E-01
 cg2d: Sum(rhs),rhsMax =  -8.85700169079432E-03  2.32351317279652E-01
 cg2d: Sum(rhs),rhsMax =  -8.85786821533318E-03  2.32354797349518E-01
 cg2d: Sum(rhs),rhsMax =  -8.85873486000438E-03  2.32358279360047E-01
 cg2d: Sum(rhs),rhsMax =  -8.85960162233637E-03  2.32361763313685E-01
 cg2d: Sum(rhs),rhsMax =  -8.86046850060018E-03  2.32365249212884E-01
 cg2d: Sum(rhs),rhsMax =  -8.86133549281426E-03  2.32368737060084E-01
 cg2d: Sum(rhs),rhsMax =  -8.86220259732714E-03  2.32372226857714E-01
 cg2d: Sum(rhs),rhsMax =  -8.86306981221103E-03  2.32375718608205E-01
 cg2d: Sum(rhs),rhsMax =  -8.86393713579676E-03  2.32379212313980E-01
 cg2d: Sum(rhs),rhsMax =  -8.86480456603939E-03  2.32382707977447E-01
 cg2d: Sum(rhs),rhsMax =  -8.86567210124776E-03  2.32386205601014E-01
 cg2d: Sum(rhs),rhsMax =  -8.86653973980861E-03  2.32389705187086E-01
 cg2d: Sum(rhs),rhsMax =  -8.86740747982411E-03  2.32393206738054E-01
 cg2d: Sum(rhs),rhsMax =  -8.86827531962108E-03  2.32396710256306E-01
 cg2d: Sum(rhs),rhsMax =  -8.86914325705288E-03  2.32400215744221E-01
 cg2d: Sum(rhs),rhsMax =  -8.87001129063770E-03  2.32403723204180E-01
 cg2d: Sum(rhs),rhsMax =  -8.87087941875270E-03  2.32407232638548E-01
 cg2d: Sum(rhs),rhsMax =  -8.87174763905160E-03  2.32410744049685E-01
 cg2d: Sum(rhs),rhsMax =  -8.87261594987971E-03  2.32414257439946E-01
 cg2d: Sum(rhs),rhsMax =  -8.87348435009493E-03  2.32417772811678E-01
 cg2d: Sum(rhs),rhsMax =  -8.87435283740793E-03  2.32421290167226E-01
 cg2d: Sum(rhs),rhsMax =  -8.87522141054931E-03  2.32424809508922E-01
 cg2d: Sum(rhs),rhsMax =  -8.87609006708672E-03  2.32428330839100E-01
 cg2d: Sum(rhs),rhsMax =  -8.87695880560973E-03  2.32431854160071E-01
 cg2d: Sum(rhs),rhsMax =  -8.87782762419492E-03  2.32435379474158E-01
 cg2d: Sum(rhs),rhsMax =  -8.87869652127118E-03  2.32438906783673E-01
 cg2d: Sum(rhs),rhsMax =  -8.87956549501522E-03  2.32442436090908E-01
 cg2d: Sum(rhs),rhsMax =  -8.88043454360380E-03  2.32445967398163E-01
 cg2d: Sum(rhs),rhsMax =  -8.88130366594291E-03  2.32449500707727E-01
(PID.TID 0000.0001)      cg2d_init_res =   2.88351246842904E-04
(PID.TID 0000.0001)      cg2d_iters(min,last) =      -1      67
(PID.TID 0000.0001)      cg2d_last_res =   9.08885056894444E-08
(PID.TID 0000.0001) // =======================================================
(PID.TID 0000.0001) // Begin MONITOR dynamic field statistics
(PID.TID 0000.0001) // =======================================================
(PID.TID 0000.0001) %MON time_tsnumber                =                 19728
(PID.TID 0000.0001) %MON time_secondsf                =   2.3673600000000E+07
(PID.TID 0000.0001) %MON dynstat_eta_max              =   3.9435376865210E-01
(PID.TID 0000.0001) %MON dynstat_eta_min              =  -1.2144544449947E-01
(PID.TID 0000.0001) %MON dynstat_eta_mean             =   1.0318150483354E-05
(PID.TID 0000.0001) %MON dynstat_eta_sd               =   1.4983520442569E-01
(PID.TID 0000.0001) %MON dynstat_eta_del2             =   3.7928497771460E-05
(PID.TID 0000.0001) %MON dynstat_uvel_max             =   1.7952159193866E-01
(PID.TID 0000.0001) %MON dynstat_uvel_min             =  -1.4726244696295E-01
(PID.TID 0000.0001) %MON dynstat_uvel_mean            =  -1.2038651632060E-08
(PID.TID 0000.0001) %MON dynstat_uvel_sd              =   6.0937324773889E-02
(PID.TID 0000.0001) %MON dynstat_uvel_del2            =   7.7300078043875E-05
(PID.TID 0000.0001) %MON dynstat_vvel_max             =   1.2992353412867E-01
(PID.TID 0000.0001) %MON dynstat_vvel_min             =  -1.5728425665625E-01
(PID.TID 0000.0001) %MON dynstat_vvel_mean            =   8.2389383799678E-08
(PID.TID 0000.0001) %MON dynstat_vvel_sd              =   5.6190743240337E-02
(PID.TID 0000.0001) %MON dynstat_vvel_del2            =   3.7505263033826E-05
(PID.TID 0000.0001) %MON dynstat_wvel_max             =   1.1785470590694E-08
(PID.TID 0000.0001) %MON dynstat_wvel_min             =  -3.8069615981658E-09
(PID.TID 0000.0001) %MON dynstat_wvel_mean            =   2.5541654243474E-21
(PID.TID 0000.0001) %MON dynstat_wvel_sd              =   3.9949269029053E-09
(PID.TID 0000.0001) %MON dynstat_wvel_del2            =   1.1402526811753E-12
(PID.TID 0000.0001) %MON dynstat_theta_max            =   2.0000000000000E+01
(PID.TID 0000.0001) %MON dynstat_theta_min            =   2.0000000000000E+01
(PID.TID 0000.0001) %MON dynstat_theta_mean           =   2.0000000000000E+01
(PID.TID 0000.0001) %MON dynstat_theta_sd             =   3.8014036363165E-13
(PID.TID 0000.0001) %MON dynstat_theta_del2           =   0.0000000000000E+00
(PID.TID 0000.0001) %MON dynstat_salt_max             =   3.0000000000000E+01
(PID.TID 0000.0001) %MON dynstat_salt_min             =   3.0000000000000E+01
(PID.TID 0000.0001) %MON dynstat_salt_mean            =   2.9999999999999E+01
(PID.TID 0000.0001) %MON dynstat_salt_sd              =   5.5777604757167E-13
(PID.TID 0000.0001) %MON dynstat_salt_del2            =   0.0000000000000E+00
(PID.TID 0000.0001) %MON trAdv_CFL_u_max              =   1.0770853771523E-02
(PID.TID 0000.0001) %MON trAdv_CFL_v_max              =   9.4244549585387E-03
(PID.TID 0000.0001) %MON trAdv_CFL_w_max              =   3.1145296983193E-09
(PID.TID 0000.0001) %MON advcfl_uvel_max              =   1.0771295516319E-02
(PID.TID 0000.0001) %MON advcfl_vvel_max              =   9.4370553993753E-03
(PID.TID 0000.0001) %MON advcfl_wvel_max              =   5.6570258835331E-09
(PID.TID 0000.0001) %MON advcfl_W_hf_max              =   0.0000000000000E+00
(PID.TID 0000.0001) %MON pe_b_mean                    =   2.3017122281463E-05
(PID.TID 0000.0001) %MON ke_max                       =   1.6137019507129E-02
(PID.TID 0000.0001) %MON ke_mean                      =   3.3722067303973E-03
(PID.TID 0000.0001) %MON ke_vol                       =   6.8893493896486E+15
(PID.TID 0000.0001) %MON vort_r_min                   =  -1.1616447034413E-06
(PID.TID 0000.0001) %MON vort_r_max                   =   3.8304319756059E-06
(PID.TID 0000.0001) %MON vort_a_mean                  =   1.0600000000000E-04
(PID.TID 0000.0001) %MON vort_a_sd                    =   3.5834109899404E-06
(PID.TID 0000.0001) %MON vort_p_mean                  =   1.1652272308690E-04
(PID.TID 0000.0001) %MON vort_p_sd                    =   4.1792820479380E-05
(PID.TID 0000.0001) %MON surfExpan_theta_mean         =   5.1095599356504E-20
(PID.TID 0000.0001) %MON surfExpan_salt_mean          =   7.6636136942593E-20
(PID.TID 0000.0001) // =======================================================
(PID.TID 0000.0001) // End MONITOR dynamic field statistics
(PID.TID 0000.0001) // =======================================================
 cg2d: Sum(rhs),rhsMax =  -8.88217285958666E-03  2.32453036021878E-01
 cg2d: Sum(rhs),rhsMax =  -8.88304212325169E-03  2.32456573342898E-01
 cg2d: Sum(rhs),rhsMax =  -8.88391145468614E-03  2.32460112673051E-01
 cg2d: Sum(rhs),rhsMax =  -8.88478085286372E-03  2.32463654014601E-01
 cg2d: Sum(rhs),rhsMax =  -8.88565031555259E-03  2.32467197369792E-01
 cg2d: Sum(rhs),rhsMax =  -8.88651984102347E-03  2.32470742740888E-01
 cg2d: Sum(rhs),rhsMax =  -8.88738942804206E-03  2.32474290130124E-01
 cg2d: Sum(rhs),rhsMax =  -8.88825907459329E-03  2.32477839539734E-01
 cg2d: Sum(rhs),rhsMax =  -8.88912877921304E-03  2.32481390971943E-01
 cg2d: Sum(rhs),rhsMax =  -8.88999853976270E-03  2.32484944428980E-01
 cg2d: Sum(rhs),rhsMax =  -8.89086835498159E-03  2.32488499913052E-01
 cg2d: Sum(rhs),rhsMax =  -8.89173822291181E-03  2.32492057426372E-01
 cg2d: Sum(rhs),rhsMax =  -8.89260814203555E-03  2.32495616971143E-01
 cg2d: Sum(rhs),rhsMax =  -8.89347811055427E-03  2.32499178549552E-01
 cg2d: Sum(rhs),rhsMax =  -8.89434812696492E-03  2.32502742163792E-01
 cg2d: Sum(rhs),rhsMax =  -8.89521818921975E-03  2.32506307816043E-01
 cg2d: Sum(rhs),rhsMax =  -8.89608829634520E-03  2.32509875508478E-01
 cg2d: Sum(rhs),rhsMax =  -8.89695844625594E-03  2.32513445243262E-01
 cg2d: Sum(rhs),rhsMax =  -8.89782863731289E-03  2.32517017022566E-01
 cg2d: Sum(rhs),rhsMax =  -8.89869886787327E-03  2.32520590848531E-01
 cg2d: Sum(rhs),rhsMax =  -8.89956913641132E-03  2.32524166723305E-01
 cg2d: Sum(rhs),rhsMax =  -8.90043944103716E-03  2.32527744649036E-01
 cg2d: Sum(rhs),rhsMax =  -8.90130978030437E-03  2.32531324627851E-01
 cg2d: Sum(rhs),rhsMax =  -8.90218015224118E-03  2.32534906661880E-01
 cg2d: Sum(rhs),rhsMax =  -8.90305055577337E-03  2.32538490753238E-01
 cg2d: Sum(rhs),rhsMax =  -8.90392098886558E-03  2.32542076904049E-01
 cg2d: Sum(rhs),rhsMax =  -8.90479145001871E-03  2.32545665116399E-01
 cg2d: Sum(rhs),rhsMax =  -8.90566193754789E-03  2.32549255392403E-01
 cg2d: Sum(rhs),rhsMax =  -8.90653245002719E-03  2.32552847734150E-01
 cg2d: Sum(rhs),rhsMax =  -8.90740298564651E-03  2.32556442143723E-01
 cg2d: Sum(rhs),rhsMax =  -8.90827354296792E-03  2.32560038623202E-01
 cg2d: Sum(rhs),rhsMax =  -8.90914411999441E-03  2.32563637174658E-01
 cg2d: Sum(rhs),rhsMax =  -8.91001471552861E-03  2.32567237800152E-01
 cg2d: Sum(rhs),rhsMax =  -8.91088532807949E-03  2.32570840501753E-01
 cg2d: Sum(rhs),rhsMax =  -8.91175595534531E-03  2.32574445281499E-01
 cg2d: Sum(rhs),rhsMax =  -8.91262659629185E-03  2.32578052141438E-01
 cg2d: Sum(rhs),rhsMax =  -8.91349724937615E-03  2.32581661083612E-01
 cg2d: Sum(rhs),rhsMax =  -8.91436791228961E-03  2.32585272110047E-01
 cg2d: Sum(rhs),rhsMax =  -8.91523858443951E-03  2.32588885222766E-01
 cg2d: Sum(rhs),rhsMax =  -8.91610926394670E-03  2.32592500423785E-01
 cg2d: Sum(rhs),rhsMax =  -8.91697994862637E-03  2.32596117715115E-01
 cg2d: Sum(rhs),rhsMax =  -8.91785063744420E-03  2.32599737098762E-01
 cg2d: Sum(rhs),rhsMax =  -8.91872132886493E-03  2.32603358576713E-01
 cg2d: Sum(rhs),rhsMax =  -8.91959202123408E-03  2.32606982150968E-01
 cg2d: Sum(rhs),rhsMax =  -8.92046271262230E-03  2.32610607823494E-01
 cg2d: Sum(rhs),rhsMax =  -8.92133340213897E-03  2.32614235596277E-01
 cg2d: Sum(rhs),rhsMax =  -8.92220408772300E-03  2.32617865471283E-01
 cg2d: Sum(rhs),rhsMax =  -8.92307476793480E-03  2.32621497450468E-01
 cg2d: Sum(rhs),rhsMax =  -8.92394544081674E-03  2.32625131535791E-01
 cg2d: Sum(rhs),rhsMax =  -8.92481610587680E-03  2.32628767729198E-01
 cg2d: Sum(rhs),rhsMax =  -8.92568676034989E-03  2.32632406032627E-01
 cg2d: Sum(rhs),rhsMax =  -8.92655740324756E-03  2.32636046448012E-01
 cg2d: Sum(rhs),rhsMax =  -8.92742803335492E-03  2.32639688977275E-01
 cg2d: Sum(rhs),rhsMax =  -8.92829864886243E-03  2.32643333622339E-01
 cg2d: Sum(rhs),rhsMax =  -8.92916924773418E-03  2.32646980385117E-01
 cg2d: Sum(rhs),rhsMax =  -8.93003982919075E-03  2.32650629267510E-01
 cg2d: Sum(rhs),rhsMax =  -8.93091039149423E-03  2.32654280271418E-01
 cg2d: Sum(rhs),rhsMax =  -8.93178093268833E-03  2.32657933398732E-01
 cg2d: Sum(rhs),rhsMax =  -8.93265145190803E-03  2.32661588651332E-01
 cg2d: Sum(rhs),rhsMax =  -8.93352194713866E-03  2.32665246031101E-01
 cg2d: Sum(rhs),rhsMax =  -8.93439241711107E-03  2.32668905539904E-01
 cg2d: Sum(rhs),rhsMax =  -8.93526285990116E-03  2.32672567179604E-01
 cg2d: Sum(rhs),rhsMax =  -8.93613327436952E-03  2.32676230952060E-01
 cg2d: Sum(rhs),rhsMax =  -8.93700365887850E-03  2.32679896859120E-01
 cg2d: Sum(rhs),rhsMax =  -8.93787401147782E-03  2.32683564902619E-01
 cg2d: Sum(rhs),rhsMax =  -8.93874433184155E-03  2.32687235084396E-01
 cg2d: Sum(rhs),rhsMax =  -8.93961461740060E-03  2.32690907406278E-01
 cg2d: Sum(rhs),rhsMax =  -8.94048486724656E-03  2.32694581870090E-01
 cg2d: Sum(rhs),rhsMax =  -8.94135507925332E-03  2.32698258477635E-01
 cg2d: Sum(rhs),rhsMax =  -8.94222525224585E-03  2.32701937230731E-01
 cg2d: Sum(rhs),rhsMax =  -8.94309538518171E-03  2.32705618131166E-01
 cg2d: Sum(rhs),rhsMax =  -8.94396547593886E-03  2.32709301180736E-01
(PID.TID 0000.0001)      cg2d_init_res =   2.88456406504780E-04
(PID.TID 0000.0001)      cg2d_iters(min,last) =      -1      67
(PID.TID 0000.0001)      cg2d_last_res =   9.06324996261400E-08
(PID.TID 0000.0001) // =======================================================
(PID.TID 0000.0001) // Begin MONITOR dynamic field statistics
(PID.TID 0000.0001) // =======================================================
(PID.TID 0000.0001) %MON time_tsnumber                =                 19800
(PID.TID 0000.0001) %MON time_secondsf                =   2.3760000000000E+07
(PID.TID 0000.0001) %MON dynstat_eta_max              =   3.9536979329146E-01
(PID.TID 0000.0001) %MON dynstat_eta_min              =  -1.2167831223515E-01
(PID.TID 0000.0001) %MON dynstat_eta_mean             =   1.0402563906036E-05
(PID.TID 0000.0001) %MON dynstat_eta_sd               =   1.5017224495333E-01
(PID.TID 0000.0001) %MON dynstat_eta_del2             =   3.7999265852625E-05
(PID.TID 0000.0001) %MON dynstat_uvel_max             =   1.7971138145444E-01
(PID.TID 0000.0001) %MON dynstat_uvel_min             =  -1.4761153783017E-01
(PID.TID 0000.0001) %MON dynstat_uvel_mean            =  -1.3691761468946E-08
(PID.TID 0000.0001) %MON dynstat_uvel_sd              =   6.1070264462058E-02
(PID.TID 0000.0001) %MON dynstat_uvel_del2            =   7.7339879177221E-05
(PID.TID 0000.0001) %MON dynstat_vvel_max             =   1.3025329031880E-01
(PID.TID 0000.0001) %MON dynstat_vvel_min             =  -1.5765670115765E-01
(PID.TID 0000.0001) %MON dynstat_vvel_mean            =   8.1283099277925E-08
(PID.TID 0000.0001) %MON dynstat_vvel_sd              =   5.6319752464909E-02
(PID.TID 0000.0001) %MON dynstat_vvel_del2            =   3.7539293478474E-05
(PID.TID 0000.0001) %MON dynstat_wvel_max             =   1.1735663869767E-08
(PID.TID 0000.0001) %MON dynstat_wvel_min             =  -3.6987954159849E-09
(PID.TID 0000.0001) %MON dynstat_wvel_mean            =  -2.6555889892026E-21
(PID.TID 0000.0001) %MON dynstat_wvel_sd              =   3.9782317829853E-09
(PID.TID 0000.0001) %MON dynstat_wvel_del2            =   1.1377446250821E-12
(PID.TID 0000.0001) %MON dynstat_theta_max            =   2.0000000000000E+01
(PID.TID 0000.0001) %MON dynstat_theta_min            =   2.0000000000000E+01
(PID.TID 0000.0001) %MON dynstat_theta_mean           =   2.0000000000000E+01
(PID.TID 0000.0001) %MON dynstat_theta_sd             =   3.8014036363165E-13
(PID.TID 0000.0001) %MON dynstat_theta_del2           =   0.0000000000000E+00
(PID.TID 0000.0001) %MON dynstat_salt_max             =   3.0000000000000E+01
(PID.TID 0000.0001) %MON dynstat_salt_min             =   3.0000000000000E+01
(PID.TID 0000.0001) %MON dynstat_salt_mean            =   2.9999999999999E+01
(PID.TID 0000.0001) %MON dynstat_salt_sd              =   5.5777604757167E-13
(PID.TID 0000.0001) %MON dynstat_salt_del2            =   0.0000000000000E+00
(PID.TID 0000.0001) %MON trAdv_CFL_u_max              =   1.0782238963950E-02
(PID.TID 0000.0001) %MON trAdv_CFL_v_max              =   9.4467763347185E-03
(PID.TID 0000.0001) %MON trAdv_CFL_w_max              =   3.1017479612338E-09
(PID.TID 0000.0001) %MON advcfl_uvel_max              =   1.0782682887266E-02
(PID.TID 0000.0001) %MON advcfl_vvel_max              =   9.4594020694592E-03
(PID.TID 0000.0001) %MON advcfl_wvel_max              =   5.6331186574884E-09
(PID.TID 0000.0001) %MON advcfl_W_hf_max              =   0.0000000000000E+00
(PID.TID 0000.0001) %MON pe_b_mean                    =   2.3120788549826E-05
(PID.TID 0000.0001) %MON ke_max                       =   1.6171131232465E-02
(PID.TID 0000.0001) %MON ke_mean                      =   3.3872914188821E-03
(PID.TID 0000.0001) %MON ke_vol                       =   6.8893493896486E+15
(PID.TID 0000.0001) %MON vort_r_min                   =  -1.1646496404374E-06
(PID.TID 0000.0001) %MON vort_r_max                   =   3.8341246673765E-06
(PID.TID 0000.0001) %MON vort_a_mean                  =   1.0600000000000E-04
(PID.TID 0000.0001) %MON vort_a_sd                    =   3.5836255874446E-06
(PID.TID 0000.0001) %MON vort_p_mean                  =   1.1652272308690E-04
(PID.TID 0000.0001) %MON vort_p_sd                    =   4.1792815721684E-05
(PID.TID 0000.0001) %MON surfExpan_theta_mean         =  -5.3078805548365E-20
(PID.TID 0000.0001) %MON surfExpan_salt_mean          =  -7.9612523980662E-20
(PID.TID 0000.0001) // =======================================================
(PID.TID 0000.0001) // End MONITOR dynamic field statistics
(PID.TID 0000.0001) // =======================================================
 cg2d: Sum(rhs),rhsMax =  -8.94483552354465E-03  2.32712986381229E-01
 cg2d: Sum(rhs),rhsMax =  -8.94570552590352E-03  2.32716673734417E-01
 cg2d: Sum(rhs),rhsMax =  -8.94657548201494E-03  2.32720363242067E-01
 cg2d: Sum(rhs),rhsMax =  -8.94744539020581E-03  2.32724054905963E-01
 cg2d: Sum(rhs),rhsMax =  -8.94831524924575E-03  2.32727748727838E-01
 cg2d: Sum(rhs),rhsMax =  -8.94918505744444E-03  2.32731444709454E-01
 cg2d: Sum(rhs),rhsMax =  -8.95005481334319E-03  2.32735142852545E-01
 cg2d: Sum(rhs),rhsMax =  -8.95092451523583E-03  2.32738843158852E-01
 cg2d: Sum(rhs),rhsMax =  -8.95179416197263E-03  2.32742545630099E-01
 cg2d: Sum(rhs),rhsMax =  -8.95266375200822E-03  2.32746250268013E-01
 cg2d: Sum(rhs),rhsMax =  -8.95353328400296E-03  2.32749957074298E-01
 cg2d: Sum(rhs),rhsMax =  -8.95440275641223E-03  2.32753666050664E-01
 cg2d: Sum(rhs),rhsMax =  -8.95527216717484E-03  2.32757377198815E-01
 cg2d: Sum(rhs),rhsMax =  -8.95614151579931E-03  2.32761090520440E-01
 cg2d: Sum(rhs),rhsMax =  -8.95701080029649E-03  2.32764806017219E-01
 cg2d: Sum(rhs),rhsMax =  -8.95788001921973E-03  2.32768523690838E-01
 cg2d: Sum(rhs),rhsMax =  -8.95874917107739E-03  2.32772243542957E-01
 cg2d: Sum(rhs),rhsMax =  -8.95961825498421E-03  2.32775965575249E-01
 cg2d: Sum(rhs),rhsMax =  -8.96048726919385E-03  2.32779689789366E-01
 cg2d: Sum(rhs),rhsMax =  -8.96135621200923E-03  2.32783416186955E-01
 cg2d: Sum(rhs),rhsMax =  -8.96222508191271E-03  2.32787144769658E-01
 cg2d: Sum(rhs),rhsMax =  -8.96309387806812E-03  2.32790875539111E-01
 cg2d: Sum(rhs),rhsMax =  -8.96396259853847E-03  2.32794608496943E-01
 cg2d: Sum(rhs),rhsMax =  -8.96483124199399E-03  2.32798343644772E-01
 cg2d: Sum(rhs),rhsMax =  -8.96569980718275E-03  2.32802080984214E-01
 cg2d: Sum(rhs),rhsMax =  -8.96656829234573E-03  2.32805820516867E-01
 cg2d: Sum(rhs),rhsMax =  -8.96743669630953E-03  2.32809562244334E-01
 cg2d: Sum(rhs),rhsMax =  -8.96830501742939E-03  2.32813306168207E-01
 cg2d: Sum(rhs),rhsMax =  -8.96917325489169E-03  2.32817052290067E-01
 cg2d: Sum(rhs),rhsMax =  -8.97004140644455E-03  2.32820800611496E-01
 cg2d: Sum(rhs),rhsMax =  -8.97090947102248E-03  2.32824551134053E-01
 cg2d: Sum(rhs),rhsMax =  -8.97177744738335E-03  2.32828303859312E-01
 cg2d: Sum(rhs),rhsMax =  -8.97264533401754E-03  2.32832058788819E-01
 cg2d: Sum(rhs),rhsMax =  -8.97351312922991E-03  2.32835815924125E-01
 cg2d: Sum(rhs),rhsMax =  -8.97438083208069E-03  2.32839575266774E-01
 cg2d: Sum(rhs),rhsMax =  -8.97524844090770E-03  2.32843336818294E-01
 cg2d: Sum(rhs),rhsMax =  -8.97611595420609E-03  2.32847100580209E-01
 cg2d: Sum(rhs),rhsMax =  -8.97698337116183E-03  2.32850866554043E-01
 cg2d: Sum(rhs),rhsMax =  -8.97785068958976E-03  2.32854634741300E-01
 cg2d: Sum(rhs),rhsMax =  -8.97871790850933E-03  2.32858405143495E-01
 cg2d: Sum(rhs),rhsMax =  -8.97958502644070E-03  2.32862177762116E-01
 cg2d: Sum(rhs),rhsMax =  -8.98045204205036E-03  2.32865952598655E-01
 cg2d: Sum(rhs),rhsMax =  -8.98131895352164E-03  2.32869729654590E-01
 cg2d: Sum(rhs),rhsMax =  -8.98218576043148E-03  2.32873508931406E-01
 cg2d: Sum(rhs),rhsMax =  -8.98305246095238E-03  2.32877290430558E-01
 cg2d: Sum(rhs),rhsMax =  -8.98391905326296E-03  2.32881074153518E-01
 cg2d: Sum(rhs),rhsMax =  -8.98478553650603E-03  2.32884860101726E-01
 cg2d: Sum(rhs),rhsMax =  -8.98565190868887E-03  2.32888648276636E-01
 cg2d: Sum(rhs),rhsMax =  -8.98651816911586E-03  2.32892438679685E-01
 cg2d: Sum(rhs),rhsMax =  -8.98738431626776E-03  2.32896231312306E-01
 cg2d: Sum(rhs),rhsMax =  -8.98825034859864E-03  2.32900026175911E-01
 cg2d: Sum(rhs),rhsMax =  -8.98911626469170E-03  2.32903823271930E-01
 cg2d: Sum(rhs),rhsMax =  -8.98998206325762E-03  2.32907622601770E-01
 cg2d: Sum(rhs),rhsMax =  -8.99084774301949E-03  2.32911424166821E-01
 cg2d: Sum(rhs),rhsMax =  -8.99171330255477E-03  2.32915227968490E-01
 cg2d: Sum(rhs),rhsMax =  -8.99257874029224E-03  2.32919034008159E-01
 cg2d: Sum(rhs),rhsMax =  -8.99344405547413E-03  2.32922842287206E-01
 cg2d: Sum(rhs),rhsMax =  -8.99430924629186E-03  2.32926652807003E-01
 cg2d: Sum(rhs),rhsMax =  -8.99517431137129E-03  2.32930465568919E-01
 cg2d: Sum(rhs),rhsMax =  -8.99603924929748E-03  2.32934280574303E-01
 cg2d: Sum(rhs),rhsMax =  -8.99690405910512E-03  2.32938097824516E-01
 cg2d: Sum(rhs),rhsMax =  -8.99776873893732E-03  2.32941917320897E-01
 cg2d: Sum(rhs),rhsMax =  -8.99863328778548E-03  2.32945739064771E-01
 cg2d: Sum(rhs),rhsMax =  -8.99949770437218E-03  2.32949563057479E-01
 cg2d: Sum(rhs),rhsMax =  -9.00036198709613E-03  2.32953389300335E-01
 cg2d: Sum(rhs),rhsMax =  -9.00122613471144E-03  2.32957217794651E-01
 cg2d: Sum(rhs),rhsMax =  -9.00209014587487E-03  2.32961048541735E-01
 cg2d: Sum(rhs),rhsMax =  -9.00295401890759E-03  2.32964881542891E-01
 cg2d: Sum(rhs),rhsMax =  -9.00381775331806E-03  2.32968716799400E-01
 cg2d: Sum(rhs),rhsMax =  -9.00468134783810E-03  2.32972554312549E-01
 cg2d: Sum(rhs),rhsMax =  -9.00554479986188E-03  2.32976394083615E-01
 cg2d: Sum(rhs),rhsMax =  -9.00640810884975E-03  2.32980236113866E-01
(PID.TID 0000.0001)      cg2d_init_res =   2.88617440461601E-04
(PID.TID 0000.0001)      cg2d_iters(min,last) =      -1      67
(PID.TID 0000.0001)      cg2d_last_res =   9.03827485533840E-08
(PID.TID 0000.0001) // =======================================================
(PID.TID 0000.0001) // Begin MONITOR dynamic field statistics
(PID.TID 0000.0001) // =======================================================
(PID.TID 0000.0001) %MON time_tsnumber                =                 19872
(PID.TID 0000.0001) %MON time_secondsf                =   2.3846400000000E+07
(PID.TID 0000.0001) %MON dynstat_eta_max              =   3.9638196506616E-01
(PID.TID 0000.0001) %MON dynstat_eta_min              =  -1.2191176947639E-01
(PID.TID 0000.0001) %MON dynstat_eta_mean             =   1.0487377561232E-05
(PID.TID 0000.0001) %MON dynstat_eta_sd               =   1.5050788746443E-01
(PID.TID 0000.0001) %MON dynstat_eta_del2             =   3.8070097916291E-05
(PID.TID 0000.0001) %MON dynstat_uvel_max             =   1.7990395992506E-01
(PID.TID 0000.0001) %MON dynstat_uvel_min             =  -1.4795781500126E-01
(PID.TID 0000.0001) %MON dynstat_uvel_mean            =  -1.5726232580256E-08
(PID.TID 0000.0001) %MON dynstat_uvel_sd              =   6.1201890761483E-02
(PID.TID 0000.0001) %MON dynstat_uvel_del2            =   7.7381857074624E-05
(PID.TID 0000.0001) %MON dynstat_vvel_max             =   1.3058072687324E-01
(PID.TID 0000.0001) %MON dynstat_vvel_min             =  -1.5802421201180E-01
(PID.TID 0000.0001) %MON dynstat_vvel_mean            =   8.0255576665772E-08
(PID.TID 0000.0001) %MON dynstat_vvel_sd              =   5.6449519096891E-02
(PID.TID 0000.0001) %MON dynstat_vvel_del2            =   3.7572506348520E-05
(PID.TID 0000.0001) %MON dynstat_wvel_max             =   1.1690388118004E-08
(PID.TID 0000.0001) %MON dynstat_wvel_min             =  -3.6271012568614E-09
(PID.TID 0000.0001) %MON dynstat_wvel_mean            =   4.5516402577858E-21
(PID.TID 0000.0001) %MON dynstat_wvel_sd              =   3.9611839530828E-09
(PID.TID 0000.0001) %MON dynstat_wvel_del2            =   1.1353271674325E-12
(PID.TID 0000.0001) %MON dynstat_theta_max            =   2.0000000000000E+01
(PID.TID 0000.0001) %MON dynstat_theta_min            =   2.0000000000000E+01
(PID.TID 0000.0001) %MON dynstat_theta_mean           =   2.0000000000000E+01
(PID.TID 0000.0001) %MON dynstat_theta_sd             =   3.8014036363165E-13
(PID.TID 0000.0001) %MON dynstat_theta_del2           =   0.0000000000000E+00
(PID.TID 0000.0001) %MON dynstat_salt_max             =   3.0000000000000E+01
(PID.TID 0000.0001) %MON dynstat_salt_min             =   3.0000000000000E+01
(PID.TID 0000.0001) %MON dynstat_salt_mean            =   2.9999999999999E+01
(PID.TID 0000.0001) %MON dynstat_salt_sd              =   5.5777604757167E-13
(PID.TID 0000.0001) %MON dynstat_salt_del2            =   0.0000000000000E+00
(PID.TID 0000.0001) %MON trAdv_CFL_u_max              =   1.0793790617163E-02
(PID.TID 0000.0001) %MON trAdv_CFL_v_max              =   9.4688026657986E-03
(PID.TID 0000.0001) %MON trAdv_CFL_w_max              =   3.0897816288915E-09
(PID.TID 0000.0001) %MON advcfl_uvel_max              =   1.0794237595504E-02
(PID.TID 0000.0001) %MON advcfl_vvel_max              =   9.4814527207081E-03
(PID.TID 0000.0001) %MON advcfl_wvel_max              =   5.6113862966420E-09
(PID.TID 0000.0001) %MON advcfl_W_hf_max              =   0.0000000000000E+00
(PID.TID 0000.0001) %MON pe_b_mean                    =   2.3224256297560E-05
(PID.TID 0000.0001) %MON ke_max                       =   1.6205883744894E-02
(PID.TID 0000.0001) %MON ke_mean                      =   3.4023728568598E-03
(PID.TID 0000.0001) %MON ke_vol                       =   6.8893493896486E+15
(PID.TID 0000.0001) %MON vort_r_min                   =  -1.1676785295097E-06
(PID.TID 0000.0001) %MON vort_r_max                   =   3.8378866799948E-06
(PID.TID 0000.0001) %MON vort_a_mean                  =   1.0600000000000E-04
(PID.TID 0000.0001) %MON vort_a_sd                    =   3.5838417218512E-06
(PID.TID 0000.0001) %MON vort_p_mean                  =   1.1652272308690E-04
(PID.TID 0000.0001) %MON vort_p_sd                    =   4.1792811025576E-05
(PID.TID 0000.0001) %MON surfExpan_theta_mean         =   9.1049261957071E-20
(PID.TID 0000.0001) %MON surfExpan_salt_mean          =   1.3656284004861E-19
(PID.TID 0000.0001) // =======================================================
(PID.TID 0000.0001) // End MONITOR dynamic field statistics
(PID.TID 0000.0001) // =======================================================
 cg2d: Sum(rhs),rhsMax =  -9.00727127338192E-03  2.32984080404564E-01
 cg2d: Sum(rhs),rhsMax =  -9.00813429265453E-03  2.32987926956963E-01
 cg2d: Sum(rhs),rhsMax =  -9.00899716428435E-03  2.32991775772309E-01
 cg2d: Sum(rhs),rhsMax =  -9.00985988775912E-03  2.32995626851838E-01
 cg2d: Sum(rhs),rhsMax =  -9.01072246157569E-03  2.32999480196788E-01
 cg2d: Sum(rhs),rhsMax =  -9.01158488410516E-03  2.33003335808376E-01
 cg2d: Sum(rhs),rhsMax =  -9.01244715490345E-03  2.33007193687820E-01
 cg2d: Sum(rhs),rhsMax =  -9.01330927163837E-03  2.33011053836338E-01
 cg2d: Sum(rhs),rhsMax =  -9.01417123347105E-03  2.33014916255123E-01
 cg2d: Sum(rhs),rhsMax =  -9.01503303932220E-03  2.33018780945366E-01
 cg2d: Sum(rhs),rhsMax =  -9.01589468689828E-03  2.33022647908269E-01
 cg2d: Sum(rhs),rhsMax =  -9.01675617618008E-03  2.33026517144993E-01
 cg2d: Sum(rhs),rhsMax =  -9.01761750537533E-03  2.33030388656718E-01
 cg2d: Sum(rhs),rhsMax =  -9.01847867275124E-03  2.33034262444615E-01
 cg2d: Sum(rhs),rhsMax =  -9.01933967750065E-03  2.33038138509833E-01
 cg2d: Sum(rhs),rhsMax =  -9.02020051830671E-03  2.33042016853523E-01
 cg2d: Sum(rhs),rhsMax =  -9.02106119398530E-03  2.33045897476829E-01
 cg2d: Sum(rhs),rhsMax =  -9.02192170217234E-03  2.33049780380887E-01
 cg2d: Sum(rhs),rhsMax =  -9.02278204328313E-03  2.33053665566824E-01
 cg2d: Sum(rhs),rhsMax =  -9.02364221485560E-03  2.33057553035756E-01
 cg2d: Sum(rhs),rhsMax =  -9.02450221615406E-03  2.33061442788791E-01
 cg2d: Sum(rhs),rhsMax =  -9.02536204561907E-03  2.33065334827046E-01
 cg2d: Sum(rhs),rhsMax =  -9.02622170167195E-03  2.33069229151612E-01
 cg2d: Sum(rhs),rhsMax =  -9.02708118349887E-03  2.33073125763580E-01
 cg2d: Sum(rhs),rhsMax =  -9.02794048979025E-03  2.33077024664031E-01
 cg2d: Sum(rhs),rhsMax =  -9.02879961895684E-03  2.33080925854035E-01
 cg2d: Sum(rhs),rhsMax =  -9.02965857029473E-03  2.33084829334671E-01
 cg2d: Sum(rhs),rhsMax =  -9.03051734153846E-03  2.33088735106993E-01
 cg2d: Sum(rhs),rhsMax =  -9.03137593263164E-03  2.33092643172051E-01
 cg2d: Sum(rhs),rhsMax =  -9.03223434196591E-03  2.33096553530891E-01
 cg2d: Sum(rhs),rhsMax =  -9.03309256785454E-03  2.33100466184553E-01
 cg2d: Sum(rhs),rhsMax =  -9.03395060919526E-03  2.33104381134064E-01
 cg2d: Sum(rhs),rhsMax =  -9.03480846436568E-03  2.33108298380452E-01
 cg2d: Sum(rhs),rhsMax =  -9.03566613289051E-03  2.33112217924722E-01
 cg2d: Sum(rhs),rhsMax =  -9.03652361311485E-03  2.33116139767888E-01
 cg2d: Sum(rhs),rhsMax =  -9.03738090384681E-03  2.33120063910949E-01
 cg2d: Sum(rhs),rhsMax =  -9.03823800313693E-03  2.33123990354894E-01
 cg2d: Sum(rhs),rhsMax =  -9.03909491122173E-03  2.33127919100713E-01
 cg2d: Sum(rhs),rhsMax =  -9.03995162553474E-03  2.33131850149383E-01
 cg2d: Sum(rhs),rhsMax =  -9.04080814553156E-03  2.33135783501869E-01
 cg2d: Sum(rhs),rhsMax =  -9.04166446915094E-03  2.33139719159138E-01
 cg2d: Sum(rhs),rhsMax =  -9.04252059614330E-03  2.33143657122142E-01
 cg2d: Sum(rhs),rhsMax =  -9.04337652463972E-03  2.33147597391825E-01
 cg2d: Sum(rhs),rhsMax =  -9.04423225404896E-03  2.33151539969130E-01
 cg2d: Sum(rhs),rhsMax =  -9.04508778239592E-03  2.33155484854991E-01
 cg2d: Sum(rhs),rhsMax =  -9.04594310844367E-03  2.33159432050333E-01
 cg2d: Sum(rhs),rhsMax =  -9.04679823167749E-03  2.33163381556069E-01
 cg2d: Sum(rhs),rhsMax =  -9.04765315009154E-03  2.33167333373106E-01
 cg2d: Sum(rhs),rhsMax =  -9.04850786280323E-03  2.33171287502355E-01
 cg2d: Sum(rhs),rhsMax =  -9.04936236856707E-03  2.33175243944699E-01
 cg2d: Sum(rhs),rhsMax =  -9.05021666601735E-03  2.33179202701035E-01
 cg2d: Sum(rhs),rhsMax =  -9.05107075414888E-03  2.33183163772236E-01
 cg2d: Sum(rhs),rhsMax =  -9.05192463204672E-03  2.33187127159177E-01
 cg2d: Sum(rhs),rhsMax =  -9.05277829773546E-03  2.33191092862723E-01
 cg2d: Sum(rhs),rhsMax =  -9.05363175014149E-03  2.33195060883725E-01
 cg2d: Sum(rhs),rhsMax =  -9.05448498845686E-03  2.33199031223036E-01
 cg2d: Sum(rhs),rhsMax =  -9.05533801120037E-03  2.33203003881501E-01
 cg2d: Sum(rhs),rhsMax =  -9.05619081707523E-03  2.33206978859941E-01
 cg2d: Sum(rhs),rhsMax =  -9.05704340522773E-03  2.33210956159192E-01
 cg2d: Sum(rhs),rhsMax =  -9.05789577419373E-03  2.33214935780072E-01
 cg2d: Sum(rhs),rhsMax =  -9.05874792255489E-03  2.33218917723397E-01
 cg2d: Sum(rhs),rhsMax =  -9.05959984990182E-03  2.33222901989959E-01
 cg2d: Sum(rhs),rhsMax =  -9.06045155425773E-03  2.33226888580563E-01
 cg2d: Sum(rhs),rhsMax =  -9.06130303423107E-03  2.33230877495995E-01
 cg2d: Sum(rhs),rhsMax =  -9.06215428925998E-03  2.33234868737032E-01
 cg2d: Sum(rhs),rhsMax =  -9.06300531804159E-03  2.33238862304453E-01
 cg2d: Sum(rhs),rhsMax =  -9.06385611926772E-03  2.33242858199015E-01
 cg2d: Sum(rhs),rhsMax =  -9.06470669161611E-03  2.33246856421488E-01
 cg2d: Sum(rhs),rhsMax =  -9.06555703430839E-03  2.33250856972613E-01
 cg2d: Sum(rhs),rhsMax =  -9.06640714543000E-03  2.33254859853140E-01
 cg2d: Sum(rhs),rhsMax =  -9.06725702493148E-03  2.33258865063797E-01
 cg2d: Sum(rhs),rhsMax =  -9.06810667016479E-03  2.33262872605319E-01
(PID.TID 0000.0001)      cg2d_init_res =   2.88784458728610E-04
(PID.TID 0000.0001)      cg2d_iters(min,last) =      -1      67
(PID.TID 0000.0001)      cg2d_last_res =   9.01161235446836E-08
(PID.TID 0000.0001) // =======================================================
(PID.TID 0000.0001) // Begin MONITOR dynamic field statistics
(PID.TID 0000.0001) // =======================================================
(PID.TID 0000.0001) %MON time_tsnumber                =                 19944
(PID.TID 0000.0001) %MON time_secondsf                =   2.3932800000000E+07
(PID.TID 0000.0001) %MON dynstat_eta_max              =   3.9739028342595E-01
(PID.TID 0000.0001) %MON dynstat_eta_min              =  -1.2214548125424E-01
(PID.TID 0000.0001) %MON dynstat_eta_mean             =   1.0572015658823E-05
(PID.TID 0000.0001) %MON dynstat_eta_sd               =   1.5084209639244E-01
(PID.TID 0000.0001) %MON dynstat_eta_del2             =   3.8141022799697E-05
(PID.TID 0000.0001) %MON dynstat_uvel_max             =   1.8010034047953E-01
(PID.TID 0000.0001) %MON dynstat_uvel_min             =  -1.4830237998215E-01
(PID.TID 0000.0001) %MON dynstat_uvel_mean            =  -1.8064253139438E-08
(PID.TID 0000.0001) %MON dynstat_uvel_sd              =   6.1332253644897E-02
(PID.TID 0000.0001) %MON dynstat_uvel_del2            =   7.7426265305254E-05
(PID.TID 0000.0001) %MON dynstat_vvel_max             =   1.3090691105105E-01
(PID.TID 0000.0001) %MON dynstat_vvel_min             =  -1.5838610552100E-01
(PID.TID 0000.0001) %MON dynstat_vvel_mean            =   7.9386524543358E-08
(PID.TID 0000.0001) %MON dynstat_vvel_sd              =   5.6579967258137E-02
(PID.TID 0000.0001) %MON dynstat_vvel_del2            =   3.7604439143740E-05
(PID.TID 0000.0001) %MON dynstat_wvel_max             =   1.1645449592761E-08
(PID.TID 0000.0001) %MON dynstat_wvel_min             =  -3.6189475475112E-09
(PID.TID 0000.0001) %MON dynstat_wvel_mean            =  -1.2888206128991E-20
(PID.TID 0000.0001) %MON dynstat_wvel_sd              =   3.9439838639508E-09
(PID.TID 0000.0001) %MON dynstat_wvel_del2            =   1.1329502730302E-12
(PID.TID 0000.0001) %MON dynstat_theta_max            =   2.0000000000000E+01
(PID.TID 0000.0001) %MON dynstat_theta_min            =   2.0000000000000E+01
(PID.TID 0000.0001) %MON dynstat_theta_mean           =   2.0000000000000E+01
(PID.TID 0000.0001) %MON dynstat_theta_sd             =   3.8014036363165E-13
(PID.TID 0000.0001) %MON dynstat_theta_del2           =   0.0000000000000E+00
(PID.TID 0000.0001) %MON dynstat_salt_max             =   3.0000000000000E+01
(PID.TID 0000.0001) %MON dynstat_salt_min             =   3.0000000000000E+01
(PID.TID 0000.0001) %MON dynstat_salt_mean            =   2.9999999999999E+01
(PID.TID 0000.0001) %MON dynstat_salt_sd              =   5.5777604757167E-13
(PID.TID 0000.0001) %MON dynstat_salt_del2            =   0.0000000000000E+00
(PID.TID 0000.0001) %MON trAdv_CFL_u_max              =   1.0805569574444E-02
(PID.TID 0000.0001) %MON trAdv_CFL_v_max              =   9.4904929424362E-03
(PID.TID 0000.0001) %MON trAdv_CFL_w_max              =   3.0779031482906E-09
(PID.TID 0000.0001) %MON advcfl_uvel_max              =   1.0806020428772E-02
(PID.TID 0000.0001) %MON advcfl_vvel_max              =   9.5031663312601E-03
(PID.TID 0000.0001) %MON advcfl_wvel_max              =   5.5898158045253E-09
(PID.TID 0000.0001) %MON advcfl_W_hf_max              =   0.0000000000000E+00
(PID.TID 0000.0001) %MON pe_b_mean                    =   2.3327511637565E-05
(PID.TID 0000.0001) %MON ke_max                       =   1.6241454883577E-02
(PID.TID 0000.0001) %MON ke_mean                      =   3.4174496190137E-03
(PID.TID 0000.0001) %MON ke_vol                       =   6.8893493896486E+15
(PID.TID 0000.0001) %MON vort_r_min                   =  -1.1707339528888E-06
(PID.TID 0000.0001) %MON vort_r_max                   =   3.8417399804424E-06
(PID.TID 0000.0001) %MON vort_a_mean                  =   1.0600000000000E-04
(PID.TID 0000.0001) %MON vort_a_sd                    =   3.5840594694006E-06
(PID.TID 0000.0001) %MON vort_p_mean                  =   1.1652272308690E-04
(PID.TID 0000.0001) %MON vort_p_sd                    =   4.1792806661761E-05
(PID.TID 0000.0001) %MON surfExpan_theta_mean         =  -2.5775269573024E-19
(PID.TID 0000.0001) %MON surfExpan_salt_mean          =  -3.8662620019083E-19
(PID.TID 0000.0001) // =======================================================
(PID.TID 0000.0001) // End MONITOR dynamic field statistics
(PID.TID 0000.0001) // =======================================================
 cg2d: Sum(rhs),rhsMax =  -9.06895608096263E-03  2.33266882478420E-01
 cg2d: Sum(rhs),rhsMax =  -9.06980525548743E-03  2.33270894683815E-01
 cg2d: Sum(rhs),rhsMax =  -9.07065419348210E-03  2.33274909222205E-01
 cg2d: Sum(rhs),rhsMax =  -9.07150289319483E-03  2.33278926094295E-01
 cg2d: Sum(rhs),rhsMax =  -9.07235135297760E-03  2.33282945300769E-01
 cg2d: Sum(rhs),rhsMax =  -9.07319957275894E-03  2.33286966842314E-01
 cg2d: Sum(rhs),rhsMax =  -9.07404755080031E-03  2.33290990719594E-01
 cg2d: Sum(rhs),rhsMax =  -9.07489528517079E-03  2.33295016933286E-01
 cg2d: Sum(rhs),rhsMax =  -9.07574277625615E-03  2.33299045484046E-01
 cg2d: Sum(rhs),rhsMax =  -9.07659002153548E-03  2.33303076372526E-01
 cg2d: Sum(rhs),rhsMax =  -9.07743702072345E-03  2.33307109599373E-01
 cg2d: Sum(rhs),rhsMax =  -9.07828377202507E-03  2.33311145165220E-01
 cg2d: Sum(rhs),rhsMax =  -9.07913027505174E-03  2.33315183070691E-01
 cg2d: Sum(rhs),rhsMax =  -9.07997652749750E-03  2.33319223316414E-01
 cg2d: Sum(rhs),rhsMax =  -9.08082252874952E-03  2.33323265903006E-01
 cg2d: Sum(rhs),rhsMax =  -9.08166827839899E-03  2.33327310831062E-01
 cg2d: Sum(rhs),rhsMax =  -9.08251377426495E-03  2.33331358101184E-01
 cg2d: Sum(rhs),rhsMax =  -9.08335901579849E-03  2.33335407713975E-01
 cg2d: Sum(rhs),rhsMax =  -9.08420400168263E-03  2.33339459669998E-01
 cg2d: Sum(rhs),rhsMax =  -9.08504873056831E-03  2.33343513969845E-01
 cg2d: Sum(rhs),rhsMax =  -9.08589320109915E-03  2.33347570614072E-01
 cg2d: Sum(rhs),rhsMax =  -9.08673741316061E-03  2.33351629603246E-01
 cg2d: Sum(rhs),rhsMax =  -9.08758136466514E-03  2.33355690937920E-01
 cg2d: Sum(rhs),rhsMax =  -9.08842505462712E-03  2.33359754618634E-01
 cg2d: Sum(rhs),rhsMax =  -9.08926848211846E-03  2.33363820645931E-01
 cg2d: Sum(rhs),rhsMax =  -9.09011164633061E-03  2.33367889020337E-01
 cg2d: Sum(rhs),rhsMax =  -9.09095454537531E-03  2.33371959742379E-01
 cg2d: Sum(rhs),rhsMax =  -9.09179717898489E-03  2.33376032812562E-01
 cg2d: Sum(rhs),rhsMax =  -9.09263954527737E-03  2.33380108231402E-01
 cg2d: Sum(rhs),rhsMax =  -9.09348164302600E-03  2.33384185999396E-01
 cg2d: Sum(rhs),rhsMax =  -9.09432347162101E-03  2.33388266117034E-01
 cg2d: Sum(rhs),rhsMax =  -9.09516503001010E-03  2.33392348584800E-01
 cg2d: Sum(rhs),rhsMax =  -9.09600631662846E-03  2.33396433403166E-01
 cg2d: Sum(rhs),rhsMax =  -9.09684733012560E-03  2.33400520572613E-01
 cg2d: Sum(rhs),rhsMax =  -9.09768807082371E-03  2.33404610093591E-01
 cg2d: Sum(rhs),rhsMax =  -9.09852853601773E-03  2.33408701966560E-01
 cg2d: Sum(rhs),rhsMax =  -9.09936872557970E-03  2.33412796191953E-01
 cg2d: Sum(rhs),rhsMax =  -9.10020863748484E-03  2.33416892770224E-01
 cg2d: Sum(rhs),rhsMax =  -9.10104827158878E-03  2.33420991701798E-01
 cg2d: Sum(rhs),rhsMax =  -9.10188762615921E-03  2.33425092987093E-01
 cg2d: Sum(rhs),rhsMax =  -9.10272670024841E-03  2.33429196626532E-01
 cg2d: Sum(rhs),rhsMax =  -9.10356549305446E-03  2.33433302620518E-01
 cg2d: Sum(rhs),rhsMax =  -9.10440400296850E-03  2.33437410969448E-01
 cg2d: Sum(rhs),rhsMax =  -9.10524222929942E-03  2.33441521673719E-01
 cg2d: Sum(rhs),rhsMax =  -9.10608017047957E-03  2.33445634733718E-01
 cg2d: Sum(rhs),rhsMax =  -9.10691782610014E-03  2.33449750149812E-01
 cg2d: Sum(rhs),rhsMax =  -9.10775519485582E-03  2.33453867922384E-01
 cg2d: Sum(rhs),rhsMax =  -9.10859227519684E-03  2.33457988051786E-01
 cg2d: Sum(rhs),rhsMax =  -9.10942906662503E-03  2.33462110538374E-01
 cg2d: Sum(rhs),rhsMax =  -9.11026556791395E-03  2.33466235382491E-01
 cg2d: Sum(rhs),rhsMax =  -9.11110177715013E-03  2.33470362584488E-01
 cg2d: Sum(rhs),rhsMax =  -9.11193769452610E-03  2.33474492144682E-01
 cg2d: Sum(rhs),rhsMax =  -9.11277331848364E-03  2.33478624063400E-01
 cg2d: Sum(rhs),rhsMax =  -9.11360864746862E-03  2.33482758340962E-01
 cg2d: Sum(rhs),rhsMax =  -9.11444368111318E-03  2.33486894977675E-01
 cg2d: Sum(rhs),rhsMax =  -9.11527841820532E-03  2.33491033973839E-01
 cg2d: Sum(rhs),rhsMax =  -9.11611285720646E-03  2.33495175329746E-01
 cg2d: Sum(rhs),rhsMax =  -9.11694699797295E-03  2.33499319045684E-01
 cg2d: Sum(rhs),rhsMax =  -9.11778083825807E-03  2.33503465121925E-01
 cg2d: Sum(rhs),rhsMax =  -9.11861437767715E-03  2.33507613558744E-01
 cg2d: Sum(rhs),rhsMax =  -9.11944761515288E-03  2.33511764356401E-01
 cg2d: Sum(rhs),rhsMax =  -9.12028054980363E-03  2.33515917515149E-01
 cg2d: Sum(rhs),rhsMax =  -9.12111318000044E-03  2.33520073035242E-01
 cg2d: Sum(rhs),rhsMax =  -9.12194550535656E-03  2.33524230916912E-01
 cg2d: Sum(rhs),rhsMax =  -9.12277752414683E-03  2.33528391160395E-01
 cg2d: Sum(rhs),rhsMax =  -9.12360923618894E-03  2.33532553765910E-01
 cg2d: Sum(rhs),rhsMax =  -9.12444063989837E-03  2.33536718733677E-01
 cg2d: Sum(rhs),rhsMax =  -9.12527173390413E-03  2.33540886063908E-01
 cg2d: Sum(rhs),rhsMax =  -9.12610251773496E-03  2.33545055756796E-01
 cg2d: Sum(rhs),rhsMax =  -9.12693299022875E-03  2.33549227812540E-01
 cg2d: Sum(rhs),rhsMax =  -9.12776314974603E-03  2.33553402231323E-01
 cg2d: Sum(rhs),rhsMax =  -9.12859299622549E-03  2.33557579013333E-01
(PID.TID 0000.0001)      cg2d_init_res =   2.88912264882736E-04
(PID.TID 0000.0001)      cg2d_iters(min,last) =      -1      67
(PID.TID 0000.0001)      cg2d_last_res =   8.98113114434939E-08
(PID.TID 0000.0001) // =======================================================
(PID.TID 0000.0001) // Begin MONITOR dynamic field statistics
(PID.TID 0000.0001) // =======================================================
(PID.TID 0000.0001) %MON time_tsnumber                =                 20016
(PID.TID 0000.0001) %MON time_secondsf                =   2.4019200000000E+07
(PID.TID 0000.0001) %MON dynstat_eta_max              =   3.9839477443600E-01
(PID.TID 0000.0001) %MON dynstat_eta_min              =  -1.2237902105498E-01
(PID.TID 0000.0001) %MON dynstat_eta_mean             =   1.0655956946698E-05
(PID.TID 0000.0001) %MON dynstat_eta_sd               =   1.5117484676642E-01
(PID.TID 0000.0001) %MON dynstat_eta_del2             =   3.8212062732451E-05
(PID.TID 0000.0001) %MON dynstat_uvel_max             =   1.8030145957585E-01
(PID.TID 0000.0001) %MON dynstat_uvel_min             =  -1.4864645491449E-01
(PID.TID 0000.0001) %MON dynstat_uvel_mean            =  -2.0605181670358E-08
(PID.TID 0000.0001) %MON dynstat_uvel_sd              =   6.1461449544176E-02
(PID.TID 0000.0001) %MON dynstat_uvel_del2            =   7.7473324171929E-05
(PID.TID 0000.0001) %MON dynstat_vvel_max             =   1.3123284677391E-01
(PID.TID 0000.0001) %MON dynstat_vvel_min             =  -1.5874175767026E-01
(PID.TID 0000.0001) %MON dynstat_vvel_mean            =   7.8746244781414E-08
(PID.TID 0000.0001) %MON dynstat_vvel_sd              =   5.6710968827316E-02
(PID.TID 0000.0001) %MON dynstat_vvel_del2            =   3.7634672882955E-05
(PID.TID 0000.0001) %MON dynstat_wvel_max             =   1.1601161989383E-08
(PID.TID 0000.0001) %MON dynstat_wvel_min             =  -3.5921863385011E-09
(PID.TID 0000.0001) %MON dynstat_wvel_mean            =   5.0498387180495E-21
(PID.TID 0000.0001) %MON dynstat_wvel_sd              =   3.9268346854980E-09
(PID.TID 0000.0001) %MON dynstat_wvel_del2            =   1.1305315135012E-12
(PID.TID 0000.0001) %MON dynstat_theta_max            =   2.0000000000000E+01
(PID.TID 0000.0001) %MON dynstat_theta_min            =   2.0000000000000E+01
(PID.TID 0000.0001) %MON dynstat_theta_mean           =   2.0000000000000E+01
(PID.TID 0000.0001) %MON dynstat_theta_sd             =   3.8014036363165E-13
(PID.TID 0000.0001) %MON dynstat_theta_del2           =   0.0000000000000E+00
(PID.TID 0000.0001) %MON dynstat_salt_max             =   3.0000000000000E+01
(PID.TID 0000.0001) %MON dynstat_salt_min             =   3.0000000000000E+01
(PID.TID 0000.0001) %MON dynstat_salt_mean            =   2.9999999999999E+01
(PID.TID 0000.0001) %MON dynstat_salt_sd              =   5.5777604757167E-13
(PID.TID 0000.0001) %MON dynstat_salt_del2            =   0.0000000000000E+00
(PID.TID 0000.0001) %MON trAdv_CFL_u_max              =   1.0817632092060E-02
(PID.TID 0000.0001) %MON trAdv_CFL_v_max              =   9.5118097144654E-03
(PID.TID 0000.0001) %MON trAdv_CFL_w_max              =   3.0661956300487E-09
(PID.TID 0000.0001) %MON advcfl_uvel_max              =   1.0818087574551E-02
(PID.TID 0000.0001) %MON advcfl_vvel_max              =   9.5245054602155E-03
(PID.TID 0000.0001) %MON advcfl_wvel_max              =   5.5685577549040E-09
(PID.TID 0000.0001) %MON advcfl_W_hf_max              =   0.0000000000000E+00
(PID.TID 0000.0001) %MON pe_b_mean                    =   2.3430543882121E-05
(PID.TID 0000.0001) %MON ke_max                       =   1.6278007955848E-02
(PID.TID 0000.0001) %MON ke_mean                      =   3.4325201676986E-03
(PID.TID 0000.0001) %MON ke_vol                       =   6.8893493896486E+15
(PID.TID 0000.0001) %MON vort_r_min                   =  -1.1738180857646E-06
(PID.TID 0000.0001) %MON vort_r_max                   =   3.8457048315450E-06
(PID.TID 0000.0001) %MON vort_a_mean                  =   1.0600000000000E-04
(PID.TID 0000.0001) %MON vort_a_sd                    =   3.5842788846087E-06
(PID.TID 0000.0001) %MON vort_p_mean                  =   1.1652272308690E-04
(PID.TID 0000.0001) %MON vort_p_sd                    =   4.1792802915814E-05
(PID.TID 0000.0001) %MON surfExpan_theta_mean         =   1.0100364988830E-19
(PID.TID 0000.0001) %MON surfExpan_salt_mean          =   1.5150776435904E-19
(PID.TID 0000.0001) // =======================================================
(PID.TID 0000.0001) // End MONITOR dynamic field statistics
(PID.TID 0000.0001) // =======================================================
 cg2d: Sum(rhs),rhsMax =  -9.12942252814944E-03  2.33561758158725E-01
 cg2d: Sum(rhs),rhsMax =  -9.13025174439456E-03  2.33565939667669E-01
 cg2d: Sum(rhs),rhsMax =  -9.13108064413597E-03  2.33570123540322E-01
 cg2d: Sum(rhs),rhsMax =  -9.13190922649094E-03  2.33574309776829E-01
 cg2d: Sum(rhs),rhsMax =  -9.13273749018056E-03  2.33578498377333E-01
 cg2d: Sum(rhs),rhsMax =  -9.13356543417206E-03  2.33582689341965E-01
 cg2d: Sum(rhs),rhsMax =  -9.13439305731107E-03  2.33586882670841E-01
 cg2d: Sum(rhs),rhsMax =  -9.13522035891292E-03  2.33591078364089E-01
 cg2d: Sum(rhs),rhsMax =  -9.13604733800765E-03  2.33595276421821E-01
 cg2d: Sum(rhs),rhsMax =  -9.13687399322677E-03  2.33599476844126E-01
 cg2d: Sum(rhs),rhsMax =  -9.13770032413120E-03  2.33603679631102E-01
 cg2d: Sum(rhs),rhsMax =  -9.13852632914049E-03  2.33607884782846E-01
 cg2d: Sum(rhs),rhsMax =  -9.13935200742894E-03  2.33612092299423E-01
 cg2d: Sum(rhs),rhsMax =  -9.14017735820881E-03  2.33616302180912E-01
 cg2d: Sum(rhs),rhsMax =  -9.14100238037023E-03  2.33620514427376E-01
 cg2d: Sum(rhs),rhsMax =  -9.14182707291624E-03  2.33624729038865E-01
 cg2d: Sum(rhs),rhsMax =  -9.14265143455285E-03  2.33628946015436E-01
 cg2d: Sum(rhs),rhsMax =  -9.14347546431911E-03  2.33633165357119E-01
 cg2d: Sum(rhs),rhsMax =  -9.14429916204151E-03  2.33637387063956E-01
 cg2d: Sum(rhs),rhsMax =  -9.14512252558190E-03  2.33641611135967E-01
 cg2d: Sum(rhs),rhsMax =  -9.14594555519994E-03  2.33645837573171E-01
 cg2d: Sum(rhs),rhsMax =  -9.14676824893022E-03  2.33650066375579E-01
 cg2d: Sum(rhs),rhsMax =  -9.14759060618422E-03  2.33654297543197E-01
 cg2d: Sum(rhs),rhsMax =  -9.14841262595987E-03  2.33658531076012E-01
 cg2d: Sum(rhs),rhsMax =  -9.14923430714473E-03  2.33662766974012E-01
 cg2d: Sum(rhs),rhsMax =  -9.15005564902805E-03  2.33667005237182E-01
 cg2d: Sum(rhs),rhsMax =  -9.15087665073443E-03  2.33671245865490E-01
 cg2d: Sum(rhs),rhsMax =  -9.15169731083176E-03  2.33675488858902E-01
 cg2d: Sum(rhs),rhsMax =  -9.15251762865617E-03  2.33679734217367E-01
 cg2d: Sum(rhs),rhsMax =  -9.15333760349892E-03  2.33683981940845E-01
 cg2d: Sum(rhs),rhsMax =  -9.15415723397922E-03  2.33688232029275E-01
 cg2d: Sum(rhs),rhsMax =  -9.15497651921060E-03  2.33692484482581E-01
 cg2d: Sum(rhs),rhsMax =  -9.15579545803372E-03  2.33696739300700E-01
 cg2d: Sum(rhs),rhsMax =  -9.15661404974618E-03  2.33700996483547E-01
 cg2d: Sum(rhs),rhsMax =  -9.15743229403244E-03  2.33705256031030E-01
 cg2d: Sum(rhs),rhsMax =  -9.15825018933675E-03  2.33709517943057E-01
 cg2d: Sum(rhs),rhsMax =  -9.15906773445936E-03  2.33713782219515E-01
 cg2d: Sum(rhs),rhsMax =  -9.15988492897122E-03  2.33718048860300E-01
 cg2d: Sum(rhs),rhsMax =  -9.16070177147086E-03  2.33722317865288E-01
 cg2d: Sum(rhs),rhsMax =  -9.16151826130467E-03  2.33726589234356E-01
 cg2d: Sum(rhs),rhsMax =  -9.16233439726772E-03  2.33730862967366E-01
 cg2d: Sum(rhs),rhsMax =  -9.16315017902143E-03  2.33735139064176E-01
 cg2d: Sum(rhs),rhsMax =  -9.16396560533653E-03  2.33739417524634E-01
 cg2d: Sum(rhs),rhsMax =  -9.16478067484755E-03  2.33743698348582E-01
 cg2d: Sum(rhs),rhsMax =  -9.16559538736943E-03  2.33747981535855E-01
 cg2d: Sum(rhs),rhsMax =  -9.16640974191514E-03  2.33752267086288E-01
 cg2d: Sum(rhs),rhsMax =  -9.16722373733644E-03  2.33756554999685E-01
 cg2d: Sum(rhs),rhsMax =  -9.16803737239915E-03  2.33760845275872E-01
 cg2d: Sum(rhs),rhsMax =  -9.16885064689115E-03  2.33765137914643E-01
 cg2d: Sum(rhs),rhsMax =  -9.16966355971160E-03  2.33769432915795E-01
 cg2d: Sum(rhs),rhsMax =  -9.17047610942299E-03  2.33773730279123E-01
 cg2d: Sum(rhs),rhsMax =  -9.17128829588194E-03  2.33778030004406E-01
 cg2d: Sum(rhs),rhsMax =  -9.17210011790669E-03  2.33782332091415E-01
 cg2d: Sum(rhs),rhsMax =  -9.17291157387268E-03  2.33786636539918E-01
 cg2d: Sum(rhs),rhsMax =  -9.17372266398455E-03  2.33790943349679E-01
 cg2d: Sum(rhs),rhsMax =  -9.17453338720717E-03  2.33795252520434E-01
 cg2d: Sum(rhs),rhsMax =  -9.17534374203289E-03  2.33799564051939E-01
 cg2d: Sum(rhs),rhsMax =  -9.17615372832006E-03  2.33803877943928E-01
 cg2d: Sum(rhs),rhsMax =  -9.17696334443955E-03  2.33808194196126E-01
 cg2d: Sum(rhs),rhsMax =  -9.17777259038859E-03  2.33812512808253E-01
 cg2d: Sum(rhs),rhsMax =  -9.17858146424295E-03  2.33816833780022E-01
 cg2d: Sum(rhs),rhsMax =  -9.17938996622172E-03  2.33821157111138E-01
 cg2d: Sum(rhs),rhsMax =  -9.18019809458866E-03  2.33825482801308E-01
 cg2d: Sum(rhs),rhsMax =  -9.18100584883138E-03  2.33829810850208E-01
 cg2d: Sum(rhs),rhsMax =  -9.18181322838172E-03  2.33834141257525E-01
 cg2d: Sum(rhs),rhsMax =  -9.18262023173222E-03  2.33838474022938E-01
 cg2d: Sum(rhs),rhsMax =  -9.18342685839641E-03  2.33842809146113E-01
 cg2d: Sum(rhs),rhsMax =  -9.18423310777235E-03  2.33847146626706E-01
 cg2d: Sum(rhs),rhsMax =  -9.18503897887062E-03  2.33851486464374E-01
 cg2d: Sum(rhs),rhsMax =  -9.18584447055040E-03  2.33855828658757E-01
 cg2d: Sum(rhs),rhsMax =  -9.18664958221871E-03  2.33860173209496E-01
 cg2d: Sum(rhs),rhsMax =  -9.18745431291776E-03  2.33864520116212E-01
(PID.TID 0000.0001)      cg2d_init_res =   2.88965448722332E-04
(PID.TID 0000.0001)      cg2d_iters(min,last) =      -1      67
(PID.TID 0000.0001)      cg2d_last_res =   8.94515104233927E-08
(PID.TID 0000.0001) // =======================================================
(PID.TID 0000.0001) // Begin MONITOR dynamic field statistics
(PID.TID 0000.0001) // =======================================================
(PID.TID 0000.0001) %MON time_tsnumber                =                 20088
(PID.TID 0000.0001) %MON time_secondsf                =   2.4105600000000E+07
(PID.TID 0000.0001) %MON dynstat_eta_max              =   3.9939548972042E-01
(PID.TID 0000.0001) %MON dynstat_eta_min              =  -1.2261188457778E-01
(PID.TID 0000.0001) %MON dynstat_eta_mean             =   1.0738732951303E-05
(PID.TID 0000.0001) %MON dynstat_eta_sd               =   1.5150612350942E-01
(PID.TID 0000.0001) %MON dynstat_eta_del2             =   3.8283233816971E-05
(PID.TID 0000.0001) %MON dynstat_uvel_max             =   1.8050816195970E-01
(PID.TID 0000.0001) %MON dynstat_uvel_min             =  -1.4899130943696E-01
(PID.TID 0000.0001) %MON dynstat_uvel_mean            =  -2.3231233389573E-08
(PID.TID 0000.0001) %MON dynstat_uvel_sd              =   6.1589613768316E-02
(PID.TID 0000.0001) %MON dynstat_uvel_del2            =   7.7523217301732E-05
(PID.TID 0000.0001) %MON dynstat_vvel_max             =   1.3155943479706E-01
(PID.TID 0000.0001) %MON dynstat_vvel_min             =  -1.5909062388705E-01
(PID.TID 0000.0001) %MON dynstat_vvel_mean            =   7.8391824271237E-08
(PID.TID 0000.0001) %MON dynstat_vvel_sd              =   5.6842351700859E-02
(PID.TID 0000.0001) %MON dynstat_vvel_del2            =   3.7662838666803E-05
(PID.TID 0000.0001) %MON dynstat_wvel_max             =   1.1557805623816E-08
(PID.TID 0000.0001) %MON dynstat_wvel_min             =  -3.5700365656521E-09
(PID.TID 0000.0001) %MON dynstat_wvel_mean            =  -2.2696710352142E-20
(PID.TID 0000.0001) %MON dynstat_wvel_sd              =   3.9099169341252E-09
(PID.TID 0000.0001) %MON dynstat_wvel_del2            =   1.1279745792624E-12
(PID.TID 0000.0001) %MON dynstat_theta_max            =   2.0000000000000E+01
(PID.TID 0000.0001) %MON dynstat_theta_min            =   2.0000000000000E+01
(PID.TID 0000.0001) %MON dynstat_theta_mean           =   2.0000000000000E+01
(PID.TID 0000.0001) %MON dynstat_theta_sd             =   3.8014036363165E-13
(PID.TID 0000.0001) %MON dynstat_theta_del2           =   0.0000000000000E+00
(PID.TID 0000.0001) %MON dynstat_salt_max             =   3.0000000000000E+01
(PID.TID 0000.0001) %MON dynstat_salt_min             =   3.0000000000000E+01
(PID.TID 0000.0001) %MON dynstat_salt_mean            =   2.9999999999999E+01
(PID.TID 0000.0001) %MON dynstat_salt_sd              =   5.5777604757167E-13
(PID.TID 0000.0001) %MON dynstat_salt_del2            =   0.0000000000000E+00
(PID.TID 0000.0001) %MON trAdv_CFL_u_max              =   1.0830028935610E-02
(PID.TID 0000.0001) %MON trAdv_CFL_v_max              =   9.5327202763827E-03
(PID.TID 0000.0001) %MON trAdv_CFL_w_max              =   3.0547332783411E-09
(PID.TID 0000.0001) %MON advcfl_uvel_max              =   1.0830489717582E-02
(PID.TID 0000.0001) %MON advcfl_vvel_max              =   9.5454374332231E-03
(PID.TID 0000.0001) %MON advcfl_wvel_max              =   5.5477466994314E-09
(PID.TID 0000.0001) %MON advcfl_W_hf_max              =   0.0000000000000E+00
(PID.TID 0000.0001) %MON pe_b_mean                    =   2.3533345361932E-05
(PID.TID 0000.0001) %MON ke_max                       =   1.6315689120534E-02
(PID.TID 0000.0001) %MON ke_mean                      =   3.4475828498971E-03
(PID.TID 0000.0001) %MON ke_vol                       =   6.8893493896486E+15
(PID.TID 0000.0001) %MON vort_r_min                   =  -1.1769326455340E-06
(PID.TID 0000.0001) %MON vort_r_max                   =   3.8497994749325E-06
(PID.TID 0000.0001) %MON vort_a_mean                  =   1.0600000000000E-04
(PID.TID 0000.0001) %MON vort_a_sd                    =   3.5844999979535E-06
(PID.TID 0000.0001) %MON vort_p_mean                  =   1.1652272308690E-04
(PID.TID 0000.0001) %MON vort_p_sd                    =   4.1792800074646E-05
(PID.TID 0000.0001) %MON surfExpan_theta_mean         =  -4.5390164959969E-19
(PID.TID 0000.0001) %MON surfExpan_salt_mean          =  -6.8086131547555E-19
(PID.TID 0000.0001) // =======================================================
(PID.TID 0000.0001) // End MONITOR dynamic field statistics
(PID.TID 0000.0001) // =======================================================
 cg2d: Sum(rhs),rhsMax =  -9.18825866208766E-03  2.33868869378543E-01
 cg2d: Sum(rhs),rhsMax =  -9.18906262883734E-03  2.33873220996087E-01
 cg2d: Sum(rhs),rhsMax =  -9.18986621210689E-03  2.33877574968458E-01
 cg2d: Sum(rhs),rhsMax =  -9.19066941108080E-03  2.33881931295258E-01
 cg2d: Sum(rhs),rhsMax =  -9.19147222515931E-03  2.33886289976070E-01
 cg2d: Sum(rhs),rhsMax =  -9.19227465327514E-03  2.33890651010488E-01
 cg2d: Sum(rhs),rhsMax =  -9.19307669474472E-03  2.33895014398082E-01
 cg2d: Sum(rhs),rhsMax =  -9.19387834880464E-03  2.33899380138420E-01
 cg2d: Sum(rhs),rhsMax =  -9.19467961430941E-03  2.33903748231067E-01
 cg2d: Sum(rhs),rhsMax =  -9.19548049114522E-03  2.33908118675582E-01
 cg2d: Sum(rhs),rhsMax =  -9.19628097807365E-03  2.33912491471499E-01
 cg2d: Sum(rhs),rhsMax =  -9.19708107461284E-03  2.33916866618362E-01
 cg2d: Sum(rhs),rhsMax =  -9.19788077896160E-03  2.33921244115707E-01
 cg2d: Sum(rhs),rhsMax =  -9.19868009151018E-03  2.33925623963047E-01
 cg2d: Sum(rhs),rhsMax =  -9.19947901089296E-03  2.33930006159912E-01
 cg2d: Sum(rhs),rhsMax =  -9.20027753669459E-03  2.33934390705801E-01
 cg2d: Sum(rhs),rhsMax =  -9.20107566803934E-03  2.33938777600213E-01
 cg2d: Sum(rhs),rhsMax =  -9.20187340347032E-03  2.33943166842652E-01
 cg2d: Sum(rhs),rhsMax =  -9.20267074320586E-03  2.33947558432589E-01
 cg2d: Sum(rhs),rhsMax =  -9.20346768570848E-03  2.33951952369516E-01
 cg2d: Sum(rhs),rhsMax =  -9.20426423083676E-03  2.33956348652898E-01
 cg2d: Sum(rhs),rhsMax =  -9.20506037729972E-03  2.33960747282202E-01
 cg2d: Sum(rhs),rhsMax =  -9.20585612461512E-03  2.33965148256873E-01
 cg2d: Sum(rhs),rhsMax =  -9.20665147204049E-03  2.33969551576373E-01
 cg2d: Sum(rhs),rhsMax =  -9.20744641848108E-03  2.33973957240142E-01
 cg2d: Sum(rhs),rhsMax =  -9.20824096369288E-03  2.33978365247601E-01
 cg2d: Sum(rhs),rhsMax =  -9.20903510646659E-03  2.33982775598187E-01
 cg2d: Sum(rhs),rhsMax =  -9.20982884638033E-03  2.33987188291313E-01
 cg2d: Sum(rhs),rhsMax =  -9.21062218250191E-03  2.33991603326388E-01
 cg2d: Sum(rhs),rhsMax =  -9.21141511413224E-03  2.33996020702821E-01
 cg2d: Sum(rhs),rhsMax =  -9.21220764083367E-03  2.34000440420006E-01
 cg2d: Sum(rhs),rhsMax =  -9.21299976163996E-03  2.34004862477331E-01
 cg2d: Sum(rhs),rhsMax =  -9.21379147546190E-03  2.34009286874171E-01
 cg2d: Sum(rhs),rhsMax =  -9.21458278198250E-03  2.34013713609911E-01
 cg2d: Sum(rhs),rhsMax =  -9.21537368053084E-03  2.34018142683905E-01
 cg2d: Sum(rhs),rhsMax =  -9.21616417032357E-03  2.34022574095522E-01
 cg2d: Sum(rhs),rhsMax =  -9.21695425077091E-03  2.34027007844105E-01
 cg2d: Sum(rhs),rhsMax =  -9.21774392081735E-03  2.34031443928996E-01
 cg2d: Sum(rhs),rhsMax =  -9.21853318005654E-03  2.34035882349538E-01
 cg2d: Sum(rhs),rhsMax =  -9.21932202783140E-03  2.34040323105055E-01
 cg2d: Sum(rhs),rhsMax =  -9.22011046277725E-03  2.34044766194870E-01
 cg2d: Sum(rhs),rhsMax =  -9.22089848487094E-03  2.34049211618294E-01
 cg2d: Sum(rhs),rhsMax =  -9.22168609306548E-03  2.34053659374639E-01
 cg2d: Sum(rhs),rhsMax =  -9.22247328730959E-03  2.34058109463194E-01
 cg2d: Sum(rhs),rhsMax =  -9.22326006608101E-03  2.34062561883255E-01
 cg2d: Sum(rhs),rhsMax =  -9.22404642914891E-03  2.34067016634106E-01
 cg2d: Sum(rhs),rhsMax =  -9.22483237620962E-03  2.34071473715021E-01
 cg2d: Sum(rhs),rhsMax =  -9.22561790595538E-03  2.34075933125275E-01
 cg2d: Sum(rhs),rhsMax =  -9.22640301758947E-03  2.34080394864119E-01
 cg2d: Sum(rhs),rhsMax =  -9.22718771092822E-03  2.34084858930816E-01
 cg2d: Sum(rhs),rhsMax =  -9.22797198524527E-03  2.34089325324607E-01
 cg2d: Sum(rhs),rhsMax =  -9.22875583946086E-03  2.34093794044732E-01
 cg2d: Sum(rhs),rhsMax =  -9.22953927327054E-03  2.34098265090425E-01
 cg2d: Sum(rhs),rhsMax =  -9.23032228636663E-03  2.34102738460909E-01
 cg2d: Sum(rhs),rhsMax =  -9.23110487710452E-03  2.34107214155396E-01
 cg2d: Sum(rhs),rhsMax =  -9.23188704617363E-03  2.34111692173104E-01
 cg2d: Sum(rhs),rhsMax =  -9.23266879171085E-03  2.34116172513227E-01
 cg2d: Sum(rhs),rhsMax =  -9.23345011448024E-03  2.34120655174959E-01
 cg2d: Sum(rhs),rhsMax =  -9.23423101216666E-03  2.34125140157493E-01
 cg2d: Sum(rhs),rhsMax =  -9.23501148529519E-03  2.34129627460006E-01
 cg2d: Sum(rhs),rhsMax =  -9.23579153248149E-03  2.34134117081670E-01
 cg2d: Sum(rhs),rhsMax =  -9.23657115349554E-03  2.34138609021648E-01
 cg2d: Sum(rhs),rhsMax =  -9.23735034807434E-03  2.34143103279099E-01
 cg2d: Sum(rhs),rhsMax =  -9.23812911494760E-03  2.34147599853173E-01
 cg2d: Sum(rhs),rhsMax =  -9.23890745393940E-03  2.34152098743013E-01
 cg2d: Sum(rhs),rhsMax =  -9.23968536413263E-03  2.34156599947754E-01
 cg2d: Sum(rhs),rhsMax =  -9.24046284557854E-03  2.34161103466523E-01
 cg2d: Sum(rhs),rhsMax =  -9.24123989673706E-03  2.34165609298437E-01
 cg2d: Sum(rhs),rhsMax =  -9.24201651798156E-03  2.34170117442615E-01
 cg2d: Sum(rhs),rhsMax =  -9.24279270786346E-03  2.34174627898160E-01
 cg2d: Sum(rhs),rhsMax =  -9.24356846612222E-03  2.34179140664172E-01
 cg2d: Sum(rhs),rhsMax =  -9.24434379217159E-03  2.34183655739740E-01
(PID.TID 0000.0001)      cg2d_init_res =   2.88921484246418E-04
(PID.TID 0000.0001)      cg2d_iters(min,last) =      -1      67
(PID.TID 0000.0001)      cg2d_last_res =   8.90382122354624E-08
(PID.TID 0000.0001) // =======================================================
(PID.TID 0000.0001) // Begin MONITOR dynamic field statistics
(PID.TID 0000.0001) // =======================================================
(PID.TID 0000.0001) %MON time_tsnumber                =                 20160
(PID.TID 0000.0001) %MON time_secondsf                =   2.4192000000000E+07
(PID.TID 0000.0001) %MON dynstat_eta_max              =   4.0039250477554E-01
(PID.TID 0000.0001) %MON dynstat_eta_min              =  -1.2284350729947E-01
(PID.TID 0000.0001) %MON dynstat_eta_mean             =   1.0819940271561E-05
(PID.TID 0000.0001) %MON dynstat_eta_sd               =   1.5183592052302E-01
(PID.TID 0000.0001) %MON dynstat_eta_del2             =   3.8354546652636E-05
(PID.TID 0000.0001) %MON dynstat_uvel_max             =   1.8072118719188E-01
(PID.TID 0000.0001) %MON dynstat_uvel_min             =  -1.4933818420312E-01
(PID.TID 0000.0001) %MON dynstat_uvel_mean            =  -2.5814022576034E-08
(PID.TID 0000.0001) %MON dynstat_uvel_sd              =   6.1716911162538E-02
(PID.TID 0000.0001) %MON dynstat_uvel_del2            =   7.7576088763247E-05
(PID.TID 0000.0001) %MON dynstat_vvel_max             =   1.3188743913605E-01
(PID.TID 0000.0001) %MON dynstat_vvel_min             =  -1.5943225668625E-01
(PID.TID 0000.0001) %MON dynstat_vvel_mean            =   7.8364157653080E-08
(PID.TID 0000.0001) %MON dynstat_vvel_sd              =   5.6973910059842E-02
(PID.TID 0000.0001) %MON dynstat_vvel_del2            =   3.7688621939998E-05
(PID.TID 0000.0001) %MON dynstat_wvel_max             =   1.1515625376996E-08
(PID.TID 0000.0001) %MON dynstat_wvel_min             =  -3.5226270707790E-09
(PID.TID 0000.0001) %MON dynstat_wvel_mean            =   4.3737701263227E-22
(PID.TID 0000.0001) %MON dynstat_wvel_sd              =   3.8933677601662E-09
(PID.TID 0000.0001) %MON dynstat_wvel_del2            =   1.1252121967446E-12
(PID.TID 0000.0001) %MON dynstat_theta_max            =   2.0000000000000E+01
(PID.TID 0000.0001) %MON dynstat_theta_min            =   2.0000000000000E+01
(PID.TID 0000.0001) %MON dynstat_theta_mean           =   2.0000000000000E+01
(PID.TID 0000.0001) %MON dynstat_theta_sd             =   3.8014036363165E-13
(PID.TID 0000.0001) %MON dynstat_theta_del2           =   0.0000000000000E+00
(PID.TID 0000.0001) %MON dynstat_salt_max             =   3.0000000000000E+01
(PID.TID 0000.0001) %MON dynstat_salt_min             =   3.0000000000000E+01
(PID.TID 0000.0001) %MON dynstat_salt_mean            =   2.9999999999999E+01
(PID.TID 0000.0001) %MON dynstat_salt_sd              =   5.5777604757167E-13
(PID.TID 0000.0001) %MON dynstat_salt_del2            =   0.0000000000000E+00
(PID.TID 0000.0001) %MON trAdv_CFL_u_max              =   1.0842804570279E-02
(PID.TID 0000.0001) %MON trAdv_CFL_v_max              =   9.5531977267181E-03
(PID.TID 0000.0001) %MON trAdv_CFL_w_max              =   3.0435807420046E-09
(PID.TID 0000.0001) %MON advcfl_uvel_max              =   1.0843271231513E-02
(PID.TID 0000.0001) %MON advcfl_vvel_max              =   9.5659354011750E-03
(PID.TID 0000.0001) %MON advcfl_wvel_max              =   5.5275001809583E-09
(PID.TID 0000.0001) %MON advcfl_W_hf_max              =   0.0000000000000E+00
(PID.TID 0000.0001) %MON pe_b_mean                    =   2.3635911175352E-05
(PID.TID 0000.0001) %MON ke_max                       =   1.6354625059644E-02
(PID.TID 0000.0001) %MON ke_mean                      =   3.4626358997036E-03
(PID.TID 0000.0001) %MON ke_vol                       =   6.8893493896486E+15
(PID.TID 0000.0001) %MON vort_r_min                   =  -1.1800788599402E-06
(PID.TID 0000.0001) %MON vort_r_max                   =   3.8540398467525E-06
(PID.TID 0000.0001) %MON vort_a_mean                  =   1.0600000000000E-04
(PID.TID 0000.0001) %MON vort_a_sd                    =   3.5847228138655E-06
(PID.TID 0000.0001) %MON vort_p_mean                  =   1.1652272308690E-04
(PID.TID 0000.0001) %MON vort_p_sd                    =   4.1792798412736E-05
(PID.TID 0000.0001) %MON surfExpan_theta_mean         =   8.7602024399934E-21
(PID.TID 0000.0001) %MON surfExpan_salt_mean          =   1.3146619595419E-20
(PID.TID 0000.0001) // =======================================================
(PID.TID 0000.0001) // End MONITOR dynamic field statistics
(PID.TID 0000.0001) // =======================================================
 cg2d: Sum(rhs),rhsMax =  -9.24511868572401E-03  2.34188173123941E-01
 cg2d: Sum(rhs),rhsMax =  -9.24589314607460E-03  2.34192692815871E-01
 cg2d: Sum(rhs),rhsMax =  -9.24666717254123E-03  2.34197214814574E-01
 cg2d: Sum(rhs),rhsMax =  -9.24744076398449E-03  2.34201739119128E-01
 cg2d: Sum(rhs),rhsMax =  -9.24821392076475E-03  2.34206265728581E-01
 cg2d: Sum(rhs),rhsMax =  -9.24898664183916E-03  2.34210794641982E-01
 cg2d: Sum(rhs),rhsMax =  -9.24975892721613E-03  2.34215325858370E-01
 cg2d: Sum(rhs),rhsMax =  -9.25053077561878E-03  2.34219859376778E-01
 cg2d: Sum(rhs),rhsMax =  -9.25130218657044E-03  2.34224395196228E-01
 cg2d: Sum(rhs),rhsMax =  -9.25207316037392E-03  2.34228933315736E-01
 cg2d: Sum(rhs),rhsMax =  -9.25284369523886E-03  2.34233473734317E-01
 cg2d: Sum(rhs),rhsMax =  -9.25361379166420E-03  2.34238016450971E-01
 cg2d: Sum(rhs),rhsMax =  -9.25438344863157E-03  2.34242561464693E-01
 cg2d: Sum(rhs),rhsMax =  -9.25515266559429E-03  2.34247108774475E-01
 cg2d: Sum(rhs),rhsMax =  -9.25592144210895E-03  2.34251658379293E-01
 cg2d: Sum(rhs),rhsMax =  -9.25668977790317E-03  2.34256210278124E-01
 cg2d: Sum(rhs),rhsMax =  -9.25745767242093E-03  2.34260764469932E-01
 cg2d: Sum(rhs),rhsMax =  -9.25822512460784E-03  2.34265320953676E-01
 cg2d: Sum(rhs),rhsMax =  -9.25899213467473E-03  2.34269879728306E-01
 cg2d: Sum(rhs),rhsMax =  -9.25975870083656E-03  2.34274440792774E-01
 cg2d: Sum(rhs),rhsMax =  -9.26052482440303E-03  2.34279004146007E-01
 cg2d: Sum(rhs),rhsMax =  -9.26129050378350E-03  2.34283569786946E-01
 cg2d: Sum(rhs),rhsMax =  -9.26205573889818E-03  2.34288137714499E-01
 cg2d: Sum(rhs),rhsMax =  -9.26282052882034E-03  2.34292707927594E-01
 cg2d: Sum(rhs),rhsMax =  -9.26358487350576E-03  2.34297280425132E-01
 cg2d: Sum(rhs),rhsMax =  -9.26434877208915E-03  2.34301855206019E-01
 cg2d: Sum(rhs),rhsMax =  -9.26511222440196E-03  2.34306432269142E-01
 cg2d: Sum(rhs),rhsMax =  -9.26587522988410E-03  2.34311011613392E-01
 cg2d: Sum(rhs),rhsMax =  -9.26663778801421E-03  2.34315593237644E-01
 cg2d: Sum(rhs),rhsMax =  -9.26739989847586E-03  2.34320177140779E-01
 cg2d: Sum(rhs),rhsMax =  -9.26816156059182E-03  2.34324763321650E-01
 cg2d: Sum(rhs),rhsMax =  -9.26892277411026E-03  2.34329351779113E-01
 cg2d: Sum(rhs),rhsMax =  -9.26968353844264E-03  2.34333942512032E-01
 cg2d: Sum(rhs),rhsMax =  -9.27044385376357E-03  2.34338535519240E-01
 cg2d: Sum(rhs),rhsMax =  -9.27120371856958E-03  2.34343130799576E-01
 cg2d: Sum(rhs),rhsMax =  -9.27196313293878E-03  2.34347728351858E-01
 cg2d: Sum(rhs),rhsMax =  -9.27272209669283E-03  2.34352328174924E-01
 cg2d: Sum(rhs),rhsMax =  -9.27348060892439E-03  2.34356930267576E-01
 cg2d: Sum(rhs),rhsMax =  -9.27423866948129E-03  2.34361534628626E-01
 cg2d: Sum(rhs),rhsMax =  -9.27499627794791E-03  2.34366141256868E-01
 cg2d: Sum(rhs),rhsMax =  -9.27575343413849E-03  2.34370750151101E-01
 cg2d: Sum(rhs),rhsMax =  -9.27651013695933E-03  2.34375361310104E-01
 cg2d: Sum(rhs),rhsMax =  -9.27726638680001E-03  2.34379974732664E-01
 cg2d: Sum(rhs),rhsMax =  -9.27802218264756E-03  2.34384590417536E-01
 cg2d: Sum(rhs),rhsMax =  -9.27877752479475E-03  2.34389208363502E-01
 cg2d: Sum(rhs),rhsMax =  -9.27953241221654E-03  2.34393828569307E-01
 cg2d: Sum(rhs),rhsMax =  -9.28028684448597E-03  2.34398451033703E-01
 cg2d: Sum(rhs),rhsMax =  -9.28104082205432E-03  2.34403075755431E-01
 cg2d: Sum(rhs),rhsMax =  -9.28179434331842E-03  2.34407702733230E-01
 cg2d: Sum(rhs),rhsMax =  -9.28254740888310E-03  2.34412331965824E-01
 cg2d: Sum(rhs),rhsMax =  -9.28330001803551E-03  2.34416963451932E-01
 cg2d: Sum(rhs),rhsMax =  -9.28405217023934E-03  2.34421597190270E-01
 cg2d: Sum(rhs),rhsMax =  -9.28480386555567E-03  2.34426233179544E-01
 cg2d: Sum(rhs),rhsMax =  -9.28555510315977E-03  2.34430871418455E-01
 cg2d: Sum(rhs),rhsMax =  -9.28630588321153E-03  2.34435511905691E-01
 cg2d: Sum(rhs),rhsMax =  -9.28705620514891E-03  2.34440154639943E-01
 cg2d: Sum(rhs),rhsMax =  -9.28780606859318E-03  2.34444799619880E-01
 cg2d: Sum(rhs),rhsMax =  -9.28855547292206E-03  2.34449446844182E-01
 cg2d: Sum(rhs),rhsMax =  -9.28930441820921E-03  2.34454096311506E-01
 cg2d: Sum(rhs),rhsMax =  -9.29005290407693E-03  2.34458748020516E-01
 cg2d: Sum(rhs),rhsMax =  -9.29080093020660E-03  2.34463401969854E-01
 cg2d: Sum(rhs),rhsMax =  -9.29154849635043E-03  2.34468058158163E-01
 cg2d: Sum(rhs),rhsMax =  -9.29229560168079E-03  2.34472716584082E-01
 cg2d: Sum(rhs),rhsMax =  -9.29304224661597E-03  2.34477377246236E-01
 cg2d: Sum(rhs),rhsMax =  -9.29378843025137E-03  2.34482040143248E-01
 cg2d: Sum(rhs),rhsMax =  -9.29453415277322E-03  2.34486705273732E-01
 cg2d: Sum(rhs),rhsMax =  -9.29527941383536E-03  2.34491372636299E-01
 cg2d: Sum(rhs),rhsMax =  -9.29602421247848E-03  2.34496042229536E-01
 cg2d: Sum(rhs),rhsMax =  -9.29676854905719E-03  2.34500714052049E-01
 cg2d: Sum(rhs),rhsMax =  -9.29751242293581E-03  2.34505388102418E-01
 cg2d: Sum(rhs),rhsMax =  -9.29825583448013E-03  2.34510064379223E-01
 cg2d: Sum(rhs),rhsMax =  -9.29899878301233E-03  2.34514742881036E-01
(PID.TID 0000.0001)      cg2d_init_res =   2.88771343940261E-04
(PID.TID 0000.0001)      cg2d_iters(min,last) =      -1      67
(PID.TID 0000.0001)      cg2d_last_res =   8.86037783872001E-08
(PID.TID 0000.0001) // =======================================================
(PID.TID 0000.0001) // Begin MONITOR dynamic field statistics
(PID.TID 0000.0001) // =======================================================
(PID.TID 0000.0001) %MON time_tsnumber                =                 20232
(PID.TID 0000.0001) %MON time_secondsf                =   2.4278400000000E+07
(PID.TID 0000.0001) %MON dynstat_eta_max              =   4.0138591669709E-01
(PID.TID 0000.0001) %MON dynstat_eta_min              =  -1.2307328499015E-01
(PID.TID 0000.0001) %MON dynstat_eta_mean             =   1.0899262138827E-05
(PID.TID 0000.0001) %MON dynstat_eta_sd               =   1.5216423961373E-01
(PID.TID 0000.0001) %MON dynstat_eta_del2             =   3.8426007049152E-05
(PID.TID 0000.0001) %MON dynstat_uvel_max             =   1.8094115798940E-01
(PID.TID 0000.0001) %MON dynstat_uvel_min             =  -1.4968821550608E-01
(PID.TID 0000.0001) %MON dynstat_uvel_mean            =  -2.8221588024561E-08
(PID.TID 0000.0001) %MON dynstat_uvel_sd              =   6.1843525585638E-02
(PID.TID 0000.0001) %MON dynstat_uvel_del2            =   7.7632040786302E-05
(PID.TID 0000.0001) %MON dynstat_vvel_max             =   1.3221746097415E-01
(PID.TID 0000.0001) %MON dynstat_vvel_min             =  -1.5976632052148E-01
(PID.TID 0000.0001) %MON dynstat_vvel_mean            =   7.8685929358635E-08
(PID.TID 0000.0001) %MON dynstat_vvel_sd              =   5.7105416019492E-02
(PID.TID 0000.0001) %MON dynstat_vvel_del2            =   3.7711764611920E-05
(PID.TID 0000.0001) %MON dynstat_wvel_max             =   1.1474825583209E-08
(PID.TID 0000.0001) %MON dynstat_wvel_min             =  -3.4633605042472E-09
(PID.TID 0000.0001) %MON dynstat_wvel_mean            =  -4.0609527079343E-21
(PID.TID 0000.0001) %MON dynstat_wvel_sd              =   3.8772689914764E-09
(PID.TID 0000.0001) %MON dynstat_wvel_del2            =   1.1222447019937E-12
(PID.TID 0000.0001) %MON dynstat_theta_max            =   2.0000000000000E+01
(PID.TID 0000.0001) %MON dynstat_theta_min            =   2.0000000000000E+01
(PID.TID 0000.0001) %MON dynstat_theta_mean           =   2.0000000000000E+01
(PID.TID 0000.0001) %MON dynstat_theta_sd             =   3.8014036363165E-13
(PID.TID 0000.0001) %MON dynstat_theta_del2           =   0.0000000000000E+00
(PID.TID 0000.0001) %MON dynstat_salt_max             =   3.0000000000000E+01
(PID.TID 0000.0001) %MON dynstat_salt_min             =   3.0000000000000E+01
(PID.TID 0000.0001) %MON dynstat_salt_mean            =   2.9999999999999E+01
(PID.TID 0000.0001) %MON dynstat_salt_sd              =   5.5777604757167E-13
(PID.TID 0000.0001) %MON dynstat_salt_del2            =   0.0000000000000E+00
(PID.TID 0000.0001) %MON trAdv_CFL_u_max              =   1.0855996459721E-02
(PID.TID 0000.0001) %MON trAdv_CFL_v_max              =   9.5732218605264E-03
(PID.TID 0000.0001) %MON trAdv_CFL_w_max              =   3.0327925649032E-09
(PID.TID 0000.0001) %MON advcfl_uvel_max              =   1.0856469479364E-02
(PID.TID 0000.0001) %MON advcfl_vvel_max              =   9.5859792312886E-03
(PID.TID 0000.0001) %MON advcfl_wvel_max              =   5.5079162799404E-09
(PID.TID 0000.0001) %MON advcfl_W_hf_max              =   0.0000000000000E+00
(PID.TID 0000.0001) %MON pe_b_mean                    =   2.3738238884068E-05
(PID.TID 0000.0001) %MON ke_max                       =   1.6394920977365E-02
(PID.TID 0000.0001) %MON ke_mean                      =   3.4776774473472E-03
(PID.TID 0000.0001) %MON ke_vol                       =   6.8893493896486E+15
(PID.TID 0000.0001) %MON vort_r_min                   =  -1.1832574549195E-06
(PID.TID 0000.0001) %MON vort_r_max                   =   3.8584393308697E-06
(PID.TID 0000.0001) %MON vort_a_mean                  =   1.0600000000000E-04
(PID.TID 0000.0001) %MON vort_a_sd                    =   3.5849473091145E-06
(PID.TID 0000.0001) %MON vort_p_mean                  =   1.1652272308690E-04
(PID.TID 0000.0001) %MON vort_p_sd                    =   4.1792798178944E-05
(PID.TID 0000.0001) %MON surfExpan_theta_mean         =  -8.1210926872188E-20
(PID.TID 0000.0001) %MON surfExpan_salt_mean          =  -1.2181386516769E-19
(PID.TID 0000.0001) // =======================================================
(PID.TID 0000.0001) // End MONITOR dynamic field statistics
(PID.TID 0000.0001) // =======================================================
 cg2d: Sum(rhs),rhsMax =  -9.29974126809876E-03  2.34519423606421E-01
 cg2d: Sum(rhs),rhsMax =  -9.30048328962450E-03  2.34524106553937E-01
 cg2d: Sum(rhs),rhsMax =  -9.30122484695502E-03  2.34528791722129E-01
 cg2d: Sum(rhs),rhsMax =  -9.30196594086099E-03  2.34533479109551E-01
 cg2d: Sum(rhs),rhsMax =  -9.30270657003677E-03  2.34538168714729E-01
 cg2d: Sum(rhs),rhsMax =  -9.30344673476959E-03  2.34542860536202E-01
 cg2d: Sum(rhs),rhsMax =  -9.30418643524331E-03  2.34547554572488E-01
 cg2d: Sum(rhs),rhsMax =  -9.30492567039117E-03  2.34552250822100E-01
 cg2d: Sum(rhs),rhsMax =  -9.30566444004616E-03  2.34556949283552E-01
 cg2d: Sum(rhs),rhsMax =  -9.30640274449358E-03  2.34561649955342E-01
 cg2d: Sum(rhs),rhsMax =  -9.30714058301755E-03  2.34566352835966E-01
 cg2d: Sum(rhs),rhsMax =  -9.30787795613060E-03  2.34571057923913E-01
 cg2d: Sum(rhs),rhsMax =  -9.30861486293387E-03  2.34575765217660E-01
 cg2d: Sum(rhs),rhsMax =  -9.30935130298091E-03  2.34580474715682E-01
 cg2d: Sum(rhs),rhsMax =  -9.31008727664755E-03  2.34585186416451E-01
 cg2d: Sum(rhs),rhsMax =  -9.31082278404103E-03  2.34589900318419E-01
 cg2d: Sum(rhs),rhsMax =  -9.31155782438403E-03  2.34594616420043E-01
 cg2d: Sum(rhs),rhsMax =  -9.31229239782507E-03  2.34599334719773E-01
 cg2d: Sum(rhs),rhsMax =  -9.31302650366060E-03  2.34604055216037E-01
 cg2d: Sum(rhs),rhsMax =  -9.31376014210927E-03  2.34608777907282E-01
 cg2d: Sum(rhs),rhsMax =  -9.31449331349129E-03  2.34613502791922E-01
 cg2d: Sum(rhs),rhsMax =  -9.31522601660995E-03  2.34618229868378E-01
 cg2d: Sum(rhs),rhsMax =  -9.31595825212390E-03  2.34622959135060E-01
 cg2d: Sum(rhs),rhsMax =  -9.31669001953071E-03  2.34627690590379E-01
 cg2d: Sum(rhs),rhsMax =  -9.31742131901730E-03  2.34632424232726E-01
 cg2d: Sum(rhs),rhsMax =  -9.31815214978407E-03  2.34637160060499E-01
 cg2d: Sum(rhs),rhsMax =  -9.31888251201351E-03  2.34641898072072E-01
 cg2d: Sum(rhs),rhsMax =  -9.31961240557239E-03  2.34646638265825E-01
 cg2d: Sum(rhs),rhsMax =  -9.32034183091012E-03  2.34651380640135E-01
 cg2d: Sum(rhs),rhsMax =  -9.32107078689887E-03  2.34656125193363E-01
 cg2d: Sum(rhs),rhsMax =  -9.32179927389451E-03  2.34660871923860E-01
 cg2d: Sum(rhs),rhsMax =  -9.32252729214655E-03  2.34665620829972E-01
 cg2d: Sum(rhs),rhsMax =  -9.32325484103896E-03  2.34670371910055E-01
 cg2d: Sum(rhs),rhsMax =  -9.32398192063291E-03  2.34675125162438E-01
 cg2d: Sum(rhs),rhsMax =  -9.32470853066916E-03  2.34679880585447E-01
 cg2d: Sum(rhs),rhsMax =  -9.32543467159798E-03  2.34684638177406E-01
 cg2d: Sum(rhs),rhsMax =  -9.32616034271566E-03  2.34689397936636E-01
 cg2d: Sum(rhs),rhsMax =  -9.32688554379336E-03  2.34694159861439E-01
 cg2d: Sum(rhs),rhsMax =  -9.32761027540081E-03  2.34698923950122E-01
 cg2d: Sum(rhs),rhsMax =  -9.32833453725775E-03  2.34703690200976E-01
 cg2d: Sum(rhs),rhsMax =  -9.32905832914075E-03  2.34708458612288E-01
 cg2d: Sum(rhs),rhsMax =  -9.32978165117150E-03  2.34713229182346E-01
 cg2d: Sum(rhs),rhsMax =  -9.33050450285327E-03  2.34718001909413E-01
 cg2d: Sum(rhs),rhsMax =  -9.33122688445445E-03  2.34722776791767E-01
 cg2d: Sum(rhs),rhsMax =  -9.33194879605289E-03  2.34727553827668E-01
 cg2d: Sum(rhs),rhsMax =  -9.33267023759857E-03  2.34732333015372E-01
 cg2d: Sum(rhs),rhsMax =  -9.33339120845586E-03  2.34737114353118E-01
 cg2d: Sum(rhs),rhsMax =  -9.33411170937683E-03  2.34741897839154E-01
 cg2d: Sum(rhs),rhsMax =  -9.33483174036941E-03  2.34746683471710E-01
 cg2d: Sum(rhs),rhsMax =  -9.33555130089283E-03  2.34751471249013E-01
 cg2d: Sum(rhs),rhsMax =  -9.33627039105249E-03  2.34756261169293E-01
 cg2d: Sum(rhs),rhsMax =  -9.33698901099412E-03  2.34761053230753E-01
 cg2d: Sum(rhs),rhsMax =  -9.33770716067275E-03  2.34765847431606E-01
 cg2d: Sum(rhs),rhsMax =  -9.33842483961026E-03  2.34770643770051E-01
 cg2d: Sum(rhs),rhsMax =  -9.33914204850842E-03  2.34775442244275E-01
 cg2d: Sum(rhs),rhsMax =  -9.33985878717000E-03  2.34780242852476E-01
 cg2d: Sum(rhs),rhsMax =  -9.34057505558134E-03  2.34785045592830E-01
 cg2d: Sum(rhs),rhsMax =  -9.34129085349720E-03  2.34789850463507E-01
 cg2d: Sum(rhs),rhsMax =  -9.34200618108343E-03  2.34794657462682E-01
 cg2d: Sum(rhs),rhsMax =  -9.34272103867064E-03  2.34799466588506E-01
 cg2d: Sum(rhs),rhsMax =  -9.34343542594161E-03  2.34804277839140E-01
 cg2d: Sum(rhs),rhsMax =  -9.34414934306539E-03  2.34809091212728E-01
 cg2d: Sum(rhs),rhsMax =  -9.34486278984923E-03  2.34813906707410E-01
 cg2d: Sum(rhs),rhsMax =  -9.34557576686018E-03  2.34818724321324E-01
 cg2d: Sum(rhs),rhsMax =  -9.34628827366058E-03  2.34823544052588E-01
 cg2d: Sum(rhs),rhsMax =  -9.34700031031095E-03  2.34828365899332E-01
 cg2d: Sum(rhs),rhsMax =  -9.34771187730953E-03  2.34833189859665E-01
 cg2d: Sum(rhs),rhsMax =  -9.34842297440619E-03  2.34838015931694E-01
 cg2d: Sum(rhs),rhsMax =  -9.34913360169572E-03  2.34842844113521E-01
 cg2d: Sum(rhs),rhsMax =  -9.34984375949765E-03  2.34847674403241E-01
 cg2d: Sum(rhs),rhsMax =  -9.35055344744410E-03  2.34852506798936E-01
 cg2d: Sum(rhs),rhsMax =  -9.35126266572061E-03  2.34857341298699E-01
(PID.TID 0000.0001)      cg2d_init_res =   2.88517673725934E-04
(PID.TID 0000.0001)      cg2d_iters(min,last) =      -1      67
(PID.TID 0000.0001)      cg2d_last_res =   8.82069506858782E-08
(PID.TID 0000.0001) // =======================================================
(PID.TID 0000.0001) // Begin MONITOR dynamic field statistics
(PID.TID 0000.0001) // =======================================================
(PID.TID 0000.0001) %MON time_tsnumber                =                 20304
(PID.TID 0000.0001) %MON time_secondsf                =   2.4364800000000E+07
(PID.TID 0000.0001) %MON dynstat_eta_max              =   4.0237584138546E-01
(PID.TID 0000.0001) %MON dynstat_eta_min              =  -1.2330059620811E-01
(PID.TID 0000.0001) %MON dynstat_eta_mean             =   1.0976494605369E-05
(PID.TID 0000.0001) %MON dynstat_eta_sd               =   1.5249108931985E-01
(PID.TID 0000.0001) %MON dynstat_eta_del2             =   3.8497616774579E-05
(PID.TID 0000.0001) %MON dynstat_uvel_max             =   1.8116857058675E-01
(PID.TID 0000.0001) %MON dynstat_uvel_min             =  -1.5004236537809E-01
(PID.TID 0000.0001) %MON dynstat_uvel_mean            =  -3.0325511475566E-08
(PID.TID 0000.0001) %MON dynstat_uvel_sd              =   6.1969648826472E-02
(PID.TID 0000.0001) %MON dynstat_uvel_del2            =   7.7691132154103E-05
(PID.TID 0000.0001) %MON dynstat_vvel_max             =   1.3254992097145E-01
(PID.TID 0000.0001) %MON dynstat_vvel_min             =  -1.6009260329391E-01
(PID.TID 0000.0001) %MON dynstat_vvel_mean            =   7.9360624786145E-08
(PID.TID 0000.0001) %MON dynstat_vvel_sd              =   5.7236631986342E-02
(PID.TID 0000.0001) %MON dynstat_vvel_del2            =   3.7732065266427E-05
(PID.TID 0000.0001) %MON dynstat_wvel_max             =   1.1435568968300E-08
(PID.TID 0000.0001) %MON dynstat_wvel_min             =  -3.3926102356054E-09
(PID.TID 0000.0001) %MON dynstat_wvel_mean            =   5.0589725712295E-21
(PID.TID 0000.0001) %MON dynstat_wvel_sd              =   3.8616460898606E-09
(PID.TID 0000.0001) %MON dynstat_wvel_del2            =   1.1191350184324E-12
(PID.TID 0000.0001) %MON dynstat_theta_max            =   2.0000000000000E+01
(PID.TID 0000.0001) %MON dynstat_theta_min            =   2.0000000000000E+01
(PID.TID 0000.0001) %MON dynstat_theta_mean           =   2.0000000000000E+01
(PID.TID 0000.0001) %MON dynstat_theta_sd             =   3.8014036363165E-13
(PID.TID 0000.0001) %MON dynstat_theta_del2           =   0.0000000000000E+00
(PID.TID 0000.0001) %MON dynstat_salt_max             =   3.0000000000000E+01
(PID.TID 0000.0001) %MON dynstat_salt_min             =   3.0000000000000E+01
(PID.TID 0000.0001) %MON dynstat_salt_mean            =   2.9999999999999E+01
(PID.TID 0000.0001) %MON dynstat_salt_sd              =   5.5777604757167E-13
(PID.TID 0000.0001) %MON dynstat_salt_del2            =   0.0000000000000E+00
(PID.TID 0000.0001) %MON trAdv_CFL_u_max              =   1.0869634485995E-02
(PID.TID 0000.0001) %MON trAdv_CFL_v_max              =   9.5927798619834E-03
(PID.TID 0000.0001) %MON trAdv_CFL_w_max              =   3.0224116260401E-09
(PID.TID 0000.0001) %MON advcfl_uvel_max              =   1.0870114235205E-02
(PID.TID 0000.0001) %MON advcfl_vvel_max              =   9.6055561976347E-03
(PID.TID 0000.0001) %MON advcfl_wvel_max              =   5.4890731047839E-09
(PID.TID 0000.0001) %MON advcfl_W_hf_max              =   0.0000000000000E+00
(PID.TID 0000.0001) %MON pe_b_mean                    =   2.3840328172964E-05
(PID.TID 0000.0001) %MON ke_max                       =   1.6436658958737E-02
(PID.TID 0000.0001) %MON ke_mean                      =   3.4927055353939E-03
(PID.TID 0000.0001) %MON ke_vol                       =   6.8893493896486E+15
(PID.TID 0000.0001) %MON vort_r_min                   =  -1.1864686619717E-06
(PID.TID 0000.0001) %MON vort_r_max                   =   3.8630085537077E-06
(PID.TID 0000.0001) %MON vort_a_mean                  =   1.0600000000000E-04
(PID.TID 0000.0001) %MON vort_a_sd                    =   3.5851734318426E-06
(PID.TID 0000.0001) %MON vort_p_mean                  =   1.1652272308690E-04
(PID.TID 0000.0001) %MON vort_p_sd                    =   4.1792799584585E-05
(PID.TID 0000.0001) %MON surfExpan_theta_mean         =   1.0117559876319E-19
(PID.TID 0000.0001) %MON surfExpan_salt_mean          =   1.5177350487505E-19
(PID.TID 0000.0001) // =======================================================
(PID.TID 0000.0001) // End MONITOR dynamic field statistics
(PID.TID 0000.0001) // =======================================================
 cg2d: Sum(rhs),rhsMax =  -9.35197141470637E-03  2.34862177900591E-01
 cg2d: Sum(rhs),rhsMax =  -9.35267969411406E-03  2.34867016602685E-01
 cg2d: Sum(rhs),rhsMax =  -9.35338750444646E-03  2.34871857403044E-01
 cg2d: Sum(rhs),rhsMax =  -9.35409484591243E-03  2.34876700299722E-01
 cg2d: Sum(rhs),rhsMax =  -9.35480171784353E-03  2.34881545290762E-01
 cg2d: Sum(rhs),rhsMax =  -9.35550812148281E-03  2.34886392374210E-01
 cg2d: Sum(rhs),rhsMax =  -9.35621405614185E-03  2.34891241548103E-01
 cg2d: Sum(rhs),rhsMax =  -9.35691952207829E-03  2.34896092810464E-01
 cg2d: Sum(rhs),rhsMax =  -9.35762451949242E-03  2.34900946159323E-01
 cg2d: Sum(rhs),rhsMax =  -9.35832904861939E-03  2.34905801592683E-01
 cg2d: Sum(rhs),rhsMax =  -9.35903310919606E-03  2.34910659108565E-01
 cg2d: Sum(rhs),rhsMax =  -9.35973670215088E-03  2.34915518704961E-01
 cg2d: Sum(rhs),rhsMax =  -9.36043982699304E-03  2.34920380379876E-01
 cg2d: Sum(rhs),rhsMax =  -9.36114248404279E-03  2.34925244131293E-01
 cg2d: Sum(rhs),rhsMax =  -9.36184467294864E-03  2.34930109957203E-01
 cg2d: Sum(rhs),rhsMax =  -9.36254639501784E-03  2.34934977855573E-01
 cg2d: Sum(rhs),rhsMax =  -9.36324764976695E-03  2.34939847824374E-01
 cg2d: Sum(rhs),rhsMax =  -9.36394843711802E-03  2.34944719861580E-01
 cg2d: Sum(rhs),rhsMax =  -9.36464875760937E-03  2.34949593965135E-01
 cg2d: Sum(rhs),rhsMax =  -9.36534861168069E-03  2.34954470132998E-01
 cg2d: Sum(rhs),rhsMax =  -9.36604799874362E-03  2.34959348363107E-01
 cg2d: Sum(rhs),rhsMax =  -9.36674692023283E-03  2.34964228653408E-01
 cg2d: Sum(rhs),rhsMax =  -9.36744537536306E-03  2.34969111001823E-01
 cg2d: Sum(rhs),rhsMax =  -9.36814336421679E-03  2.34973995406288E-01
 cg2d: Sum(rhs),rhsMax =  -9.36884088769311E-03  2.34978881864710E-01
 cg2d: Sum(rhs),rhsMax =  -9.36953794570406E-03  2.34983770375007E-01
 cg2d: Sum(rhs),rhsMax =  -9.37023453868320E-03  2.34988660935085E-01
 cg2d: Sum(rhs),rhsMax =  -9.37093066619623E-03  2.34993553542842E-01
 cg2d: Sum(rhs),rhsMax =  -9.37162632939711E-03  2.34998448196171E-01
 cg2d: Sum(rhs),rhsMax =  -9.37232152771516E-03  2.35003344892959E-01
 cg2d: Sum(rhs),rhsMax =  -9.37301626183240E-03  2.35008243631089E-01
 cg2d: Sum(rhs),rhsMax =  -9.37371053176285E-03  2.35013144408434E-01
 cg2d: Sum(rhs),rhsMax =  -9.37440433840050E-03  2.35018047222859E-01
 cg2d: Sum(rhs),rhsMax =  -9.37509768095360E-03  2.35022952072218E-01
 cg2d: Sum(rhs),rhsMax =  -9.37579056007516E-03  2.35027858954386E-01
 cg2d: Sum(rhs),rhsMax =  -9.37648297653595E-03  2.35032767867198E-01
 cg2d: Sum(rhs),rhsMax =  -9.37717493060644E-03  2.35037678808494E-01
 cg2d: Sum(rhs),rhsMax =  -9.37786642173132E-03  2.35042591776115E-01
 cg2d: Sum(rhs),rhsMax =  -9.37855745107336E-03  2.35047506767895E-01
 cg2d: Sum(rhs),rhsMax =  -9.37924801807865E-03  2.35052423781648E-01
 cg2d: Sum(rhs),rhsMax =  -9.37993812381899E-03  2.35057342815201E-01
 cg2d: Sum(rhs),rhsMax =  -9.38062776811421E-03  2.35062263866355E-01
 cg2d: Sum(rhs),rhsMax =  -9.38131695132838E-03  2.35067186932922E-01
 cg2d: Sum(rhs),rhsMax =  -9.38200567416509E-03  2.35072112012696E-01
 cg2d: Sum(rhs),rhsMax =  -9.38269393631642E-03  2.35077039103471E-01
 cg2d: Sum(rhs),rhsMax =  -9.38338173888154E-03  2.35081968203035E-01
 cg2d: Sum(rhs),rhsMax =  -9.38406908112726E-03  2.35086899309166E-01
 cg2d: Sum(rhs),rhsMax =  -9.38475596424918E-03  2.35091832419639E-01
 cg2d: Sum(rhs),rhsMax =  -9.38544238813469E-03  2.35096767532212E-01
 cg2d: Sum(rhs),rhsMax =  -9.38612835341167E-03  2.35101704644662E-01
 cg2d: Sum(rhs),rhsMax =  -9.38681386039224E-03  2.35106643754728E-01
 cg2d: Sum(rhs),rhsMax =  -9.38749890931446E-03  2.35111584860169E-01
 cg2d: Sum(rhs),rhsMax =  -9.38818350054882E-03  2.35116527958723E-01
 cg2d: Sum(rhs),rhsMax =  -9.38886763456703E-03  2.35121473048129E-01
 cg2d: Sum(rhs),rhsMax =  -9.38955131127144E-03  2.35126420126113E-01
 cg2d: Sum(rhs),rhsMax =  -9.39023453159447E-03  2.35131369190408E-01
 cg2d: Sum(rhs),rhsMax =  -9.39091729583770E-03  2.35136320238723E-01
 cg2d: Sum(rhs),rhsMax =  -9.39159960410260E-03  2.35141273268764E-01
 cg2d: Sum(rhs),rhsMax =  -9.39228145710003E-03  2.35146228278256E-01
 cg2d: Sum(rhs),rhsMax =  -9.39296285472039E-03  2.35151185264887E-01
 cg2d: Sum(rhs),rhsMax =  -9.39364379765308E-03  2.35156144226345E-01
 cg2d: Sum(rhs),rhsMax =  -9.39432428644332E-03  2.35161105160324E-01
 cg2d: Sum(rhs),rhsMax =  -9.39500432116855E-03  2.35166068064508E-01
 cg2d: Sum(rhs),rhsMax =  -9.39568390252889E-03  2.35171032936565E-01
 cg2d: Sum(rhs),rhsMax =  -9.39636303048852E-03  2.35175999774163E-01
 cg2d: Sum(rhs),rhsMax =  -9.39704170595766E-03  2.35180968574975E-01
 cg2d: Sum(rhs),rhsMax =  -9.39771992901863E-03  2.35185939336648E-01
 cg2d: Sum(rhs),rhsMax =  -9.39839770077771E-03  2.35190912056836E-01
 cg2d: Sum(rhs),rhsMax =  -9.39907502050437E-03  2.35195886733185E-01
 cg2d: Sum(rhs),rhsMax =  -9.39975188981418E-03  2.35200863363335E-01
 cg2d: Sum(rhs),rhsMax =  -9.40042830852535E-03  2.35205841944913E-01
 cg2d: Sum(rhs),rhsMax =  -9.40110427719201E-03  2.35210822475549E-01
(PID.TID 0000.0001)      cg2d_init_res =   2.88171065624931E-04
(PID.TID 0000.0001)      cg2d_iters(min,last) =      -1      67
(PID.TID 0000.0001)      cg2d_last_res =   8.79070865464131E-08
(PID.TID 0000.0001) // =======================================================
(PID.TID 0000.0001) // Begin MONITOR dynamic field statistics
(PID.TID 0000.0001) // =======================================================
(PID.TID 0000.0001) %MON time_tsnumber                =                 20376
(PID.TID 0000.0001) %MON time_secondsf                =   2.4451200000000E+07
(PID.TID 0000.0001) %MON dynstat_eta_max              =   4.0336241030830E-01
(PID.TID 0000.0001) %MON dynstat_eta_min              =  -1.2352482574099E-01
(PID.TID 0000.0001) %MON dynstat_eta_mean             =   1.1051570259688E-05
(PID.TID 0000.0001) %MON dynstat_eta_sd               =   1.5281648369988E-01
(PID.TID 0000.0001) %MON dynstat_eta_del2             =   3.8569374285576E-05
(PID.TID 0000.0001) %MON dynstat_uvel_max             =   1.8140378728024E-01
(PID.TID 0000.0001) %MON dynstat_uvel_min             =  -1.5040136119630E-01
(PID.TID 0000.0001) %MON dynstat_uvel_mean            =  -3.2007743940333E-08
(PID.TID 0000.0001) %MON dynstat_uvel_sd              =   6.2095469588530E-02
(PID.TID 0000.0001) %MON dynstat_uvel_del2            =   7.7753377321607E-05
(PID.TID 0000.0001) %MON dynstat_vvel_max             =   1.3288505055660E-01
(PID.TID 0000.0001) %MON dynstat_vvel_min             =  -1.6041102412026E-01
(PID.TID 0000.0001) %MON dynstat_vvel_mean            =   8.0372582129455E-08
(PID.TID 0000.0001) %MON dynstat_vvel_sd              =   5.7367323036632E-02
(PID.TID 0000.0001) %MON dynstat_vvel_del2            =   3.7749377730434E-05
(PID.TID 0000.0001) %MON dynstat_wvel_max             =   1.1397976132357E-08
(PID.TID 0000.0001) %MON dynstat_wvel_min             =  -3.3846768725198E-09
(PID.TID 0000.0001) %MON dynstat_wvel_mean            =   7.4090750482962E-21
(PID.TID 0000.0001) %MON dynstat_wvel_sd              =   3.8464778030503E-09
(PID.TID 0000.0001) %MON dynstat_wvel_del2            =   1.1159644758598E-12
(PID.TID 0000.0001) %MON dynstat_theta_max            =   2.0000000000000E+01
(PID.TID 0000.0001) %MON dynstat_theta_min            =   2.0000000000000E+01
(PID.TID 0000.0001) %MON dynstat_theta_mean           =   2.0000000000000E+01
(PID.TID 0000.0001) %MON dynstat_theta_sd             =   3.8014036363165E-13
(PID.TID 0000.0001) %MON dynstat_theta_del2           =   0.0000000000000E+00
(PID.TID 0000.0001) %MON dynstat_salt_max             =   3.0000000000000E+01
(PID.TID 0000.0001) %MON dynstat_salt_min             =   3.0000000000000E+01
(PID.TID 0000.0001) %MON dynstat_salt_mean            =   2.9999999999999E+01
(PID.TID 0000.0001) %MON dynstat_salt_sd              =   5.5777604757167E-13
(PID.TID 0000.0001) %MON dynstat_salt_del2            =   0.0000000000000E+00
(PID.TID 0000.0001) %MON trAdv_CFL_u_max              =   1.0883740500361E-02
(PID.TID 0000.0001) %MON trAdv_CFL_v_max              =   9.6118667730900E-03
(PID.TID 0000.0001) %MON trAdv_CFL_w_max              =   3.0124701818097E-09
(PID.TID 0000.0001) %MON advcfl_uvel_max              =   1.0884227236815E-02
(PID.TID 0000.0001) %MON advcfl_vvel_max              =   9.6246614472153E-03
(PID.TID 0000.0001) %MON advcfl_wvel_max              =   5.4710285435314E-09
(PID.TID 0000.0001) %MON advcfl_W_hf_max              =   0.0000000000000E+00
(PID.TID 0000.0001) %MON pe_b_mean                    =   2.3942180492879E-05
(PID.TID 0000.0001) %MON ke_max                       =   1.6479896713261E-02
(PID.TID 0000.0001) %MON ke_mean                      =   3.5077181423481E-03
(PID.TID 0000.0001) %MON ke_vol                       =   6.8893493896486E+15
(PID.TID 0000.0001) %MON vort_r_min                   =  -1.1897122438932E-06
(PID.TID 0000.0001) %MON vort_r_max                   =   3.8677552242491E-06
(PID.TID 0000.0001) %MON vort_a_mean                  =   1.0600000000000E-04
(PID.TID 0000.0001) %MON vort_a_sd                    =   3.5854011010743E-06
(PID.TID 0000.0001) %MON vort_p_mean                  =   1.1652272308690E-04
(PID.TID 0000.0001) %MON vort_p_sd                    =   4.1792802793443E-05
(PID.TID 0000.0001) %MON surfExpan_theta_mean         =   1.4818005834706E-19
(PID.TID 0000.0001) %MON surfExpan_salt_mean          =   2.2227513903535E-19
(PID.TID 0000.0001) // =======================================================
(PID.TID 0000.0001) // End MONITOR dynamic field statistics
(PID.TID 0000.0001) // =======================================================
 cg2d: Sum(rhs),rhsMax =  -9.40177979596750E-03  2.35215804952868E-01
 cg2d: Sum(rhs),rhsMax =  -9.40245486566847E-03  2.35220789374477E-01
 cg2d: Sum(rhs),rhsMax =  -9.40312948666015E-03  2.35225775737984E-01
 cg2d: Sum(rhs),rhsMax =  -9.40380365945493E-03  2.35230764041002E-01
 cg2d: Sum(rhs),rhsMax =  -9.40447738421357E-03  2.35235754281122E-01
 cg2d: Sum(rhs),rhsMax =  -9.40515066170532E-03  2.35240746455926E-01
 cg2d: Sum(rhs),rhsMax =  -9.40582349257686E-03  2.35245740563008E-01
 cg2d: Sum(rhs),rhsMax =  -9.40649587694539E-03  2.35250736599948E-01
 cg2d: Sum(rhs),rhsMax =  -9.40716781548213E-03  2.35255734564315E-01
 cg2d: Sum(rhs),rhsMax =  -9.40783930831855E-03  2.35260734453677E-01
 cg2d: Sum(rhs),rhsMax =  -9.40851035632947E-03  2.35265736265594E-01
 cg2d: Sum(rhs),rhsMax =  -9.40918096039911E-03  2.35270739997622E-01
 cg2d: Sum(rhs),rhsMax =  -9.40985112037233E-03  2.35275745647306E-01
 cg2d: Sum(rhs),rhsMax =  -9.41052083703060E-03  2.35280753212197E-01
 cg2d: Sum(rhs),rhsMax =  -9.41119011022426E-03  2.35285762689829E-01
 cg2d: Sum(rhs),rhsMax =  -9.41185894137408E-03  2.35290774077732E-01
 cg2d: Sum(rhs),rhsMax =  -9.41252733053531E-03  2.35295787373428E-01
 cg2d: Sum(rhs),rhsMax =  -9.41319527873541E-03  2.35300802574446E-01
 cg2d: Sum(rhs),rhsMax =  -9.41386278546772E-03  2.35305819678294E-01
 cg2d: Sum(rhs),rhsMax =  -9.41452985226094E-03  2.35310838682483E-01
 cg2d: Sum(rhs),rhsMax =  -9.41519647943084E-03  2.35315859584513E-01
 cg2d: Sum(rhs),rhsMax =  -9.41586266733099E-03  2.35320882381869E-01
 cg2d: Sum(rhs),rhsMax =  -9.41652841648423E-03  2.35325907072063E-01
 cg2d: Sum(rhs),rhsMax =  -9.41719372782095E-03  2.35330933652569E-01
 cg2d: Sum(rhs),rhsMax =  -9.41785860146266E-03  2.35335962120865E-01
 cg2d: Sum(rhs),rhsMax =  -9.41852303832329E-03  2.35340992474426E-01
 cg2d: Sum(rhs),rhsMax =  -9.41918703887866E-03  2.35346024710715E-01
 cg2d: Sum(rhs),rhsMax =  -9.41985060322532E-03  2.35351058827198E-01
 cg2d: Sum(rhs),rhsMax =  -9.42051373256802E-03  2.35356094821337E-01
 cg2d: Sum(rhs),rhsMax =  -9.42117642729984E-03  2.35361132690569E-01
 cg2d: Sum(rhs),rhsMax =  -9.42183868813872E-03  2.35366172432346E-01
 cg2d: Sum(rhs),rhsMax =  -9.42250051473537E-03  2.35371214044104E-01
 cg2d: Sum(rhs),rhsMax =  -9.42316190915858E-03  2.35376257523277E-01
 cg2d: Sum(rhs),rhsMax =  -9.42382287093552E-03  2.35381302867290E-01
 cg2d: Sum(rhs),rhsMax =  -9.42448340083013E-03  2.35386350073567E-01
 cg2d: Sum(rhs),rhsMax =  -9.42514349983603E-03  2.35391399139523E-01
 cg2d: Sum(rhs),rhsMax =  -9.42580316839623E-03  2.35396450062567E-01
 cg2d: Sum(rhs),rhsMax =  -9.42646240681760E-03  2.35401502840106E-01
 cg2d: Sum(rhs),rhsMax =  -9.42712121643564E-03  2.35406557469538E-01
 cg2d: Sum(rhs),rhsMax =  -9.42777959708156E-03  2.35411613948253E-01
 cg2d: Sum(rhs),rhsMax =  -9.42843754959323E-03  2.35416672273639E-01
 cg2d: Sum(rhs),rhsMax =  -9.42909507495034E-03  2.35421732443076E-01
 cg2d: Sum(rhs),rhsMax =  -9.42975217360184E-03  2.35426794453944E-01
 cg2d: Sum(rhs),rhsMax =  -9.43040884590545E-03  2.35431858303613E-01
 cg2d: Sum(rhs),rhsMax =  -9.43106509299311E-03  2.35436923989449E-01
 cg2d: Sum(rhs),rhsMax =  -9.43172091482327E-03  2.35441991508807E-01
 cg2d: Sum(rhs),rhsMax =  -9.43237631293904E-03  2.35447060859040E-01
 cg2d: Sum(rhs),rhsMax =  -9.43303128772734E-03  2.35452132037498E-01
 cg2d: Sum(rhs),rhsMax =  -9.43368583928213E-03  2.35457205041525E-01
 cg2d: Sum(rhs),rhsMax =  -9.43433996883516E-03  2.35462279868461E-01
 cg2d: Sum(rhs),rhsMax =  -9.43499367663388E-03  2.35467356515629E-01
 cg2d: Sum(rhs),rhsMax =  -9.43564696384014E-03  2.35472434980361E-01
 cg2d: Sum(rhs),rhsMax =  -9.43629983082685E-03  2.35477515259973E-01
 cg2d: Sum(rhs),rhsMax =  -9.43695227805134E-03  2.35482597351778E-01
 cg2d: Sum(rhs),rhsMax =  -9.43760430702777E-03  2.35487681253092E-01
 cg2d: Sum(rhs),rhsMax =  -9.43825591771447E-03  2.35492766961213E-01
 cg2d: Sum(rhs),rhsMax =  -9.43890711101765E-03  2.35497854473445E-01
 cg2d: Sum(rhs),rhsMax =  -9.43955788777345E-03  2.35502943787076E-01
 cg2d: Sum(rhs),rhsMax =  -9.44020824824118E-03  2.35508034899393E-01
 cg2d: Sum(rhs),rhsMax =  -9.44085819348107E-03  2.35513127807672E-01
 cg2d: Sum(rhs),rhsMax =  -9.44150772457475E-03  2.35518222509205E-01
 cg2d: Sum(rhs),rhsMax =  -9.44215684136234E-03  2.35523319001251E-01
 cg2d: Sum(rhs),rhsMax =  -9.44280554501413E-03  2.35528417281073E-01
 cg2d: Sum(rhs),rhsMax =  -9.44345383630779E-03  2.35533517345940E-01
 cg2d: Sum(rhs),rhsMax =  -9.44410171613132E-03  2.35538619193102E-01
 cg2d: Sum(rhs),rhsMax =  -9.44474918501317E-03  2.35543722819811E-01
 cg2d: Sum(rhs),rhsMax =  -9.44539624373106E-03  2.35548828223298E-01
 cg2d: Sum(rhs),rhsMax =  -9.44604289286534E-03  2.35553935400819E-01
 cg2d: Sum(rhs),rhsMax =  -9.44668913335982E-03  2.35559044349597E-01
 cg2d: Sum(rhs),rhsMax =  -9.44733496586440E-03  2.35564155066860E-01
 cg2d: Sum(rhs),rhsMax =  -9.44798039107885E-03  2.35569267549831E-01
 cg2d: Sum(rhs),rhsMax =  -9.44862540993785E-03  2.35574381795729E-01
(PID.TID 0000.0001)      cg2d_init_res =   2.87745328291988E-04
(PID.TID 0000.0001)      cg2d_iters(min,last) =      -1      67
(PID.TID 0000.0001)      cg2d_last_res =   8.77210630942953E-08
(PID.TID 0000.0001) // =======================================================
(PID.TID 0000.0001) // Begin MONITOR dynamic field statistics
(PID.TID 0000.0001) // =======================================================
(PID.TID 0000.0001) %MON time_tsnumber                =                 20448
(PID.TID 0000.0001) %MON time_secondsf                =   2.4537600000000E+07
(PID.TID 0000.0001) %MON dynstat_eta_max              =   4.0434576691000E-01
(PID.TID 0000.0001) %MON dynstat_eta_min              =  -1.2374600156381E-01
(PID.TID 0000.0001) %MON dynstat_eta_mean             =   1.1124568255794E-05
(PID.TID 0000.0001) %MON dynstat_eta_sd               =   1.5314044114263E-01
(PID.TID 0000.0001) %MON dynstat_eta_del2             =   3.8641275391771E-05
(PID.TID 0000.0001) %MON dynstat_uvel_max             =   1.8164703127212E-01
(PID.TID 0000.0001) %MON dynstat_uvel_min             =  -1.5076564825304E-01
(PID.TID 0000.0001) %MON dynstat_uvel_mean            =  -3.3166777003616E-08
(PID.TID 0000.0001) %MON dynstat_uvel_sd              =   6.2221163144348E-02
(PID.TID 0000.0001) %MON dynstat_uvel_del2            =   7.7818746289539E-05
(PID.TID 0000.0001) %MON dynstat_vvel_max             =   1.3322289241344E-01
(PID.TID 0000.0001) %MON dynstat_vvel_min             =  -1.6072163712549E-01
(PID.TID 0000.0001) %MON dynstat_vvel_mean            =   8.1688042056735E-08
(PID.TID 0000.0001) %MON dynstat_vvel_sd              =   5.7497268657214E-02
(PID.TID 0000.0001) %MON dynstat_vvel_del2            =   3.7763608282662E-05
(PID.TID 0000.0001) %MON dynstat_wvel_max             =   1.1362138472323E-08
(PID.TID 0000.0001) %MON dynstat_wvel_min             =  -3.4781033915351E-09
(PID.TID 0000.0001) %MON dynstat_wvel_mean            =   5.8626276060952E-21
(PID.TID 0000.0001) %MON dynstat_wvel_sd              =   3.8317139967352E-09
(PID.TID 0000.0001) %MON dynstat_wvel_del2            =   1.1127891874247E-12
(PID.TID 0000.0001) %MON dynstat_theta_max            =   2.0000000000000E+01
(PID.TID 0000.0001) %MON dynstat_theta_min            =   2.0000000000000E+01
(PID.TID 0000.0001) %MON dynstat_theta_mean           =   2.0000000000000E+01
(PID.TID 0000.0001) %MON dynstat_theta_sd             =   3.8014036363165E-13
(PID.TID 0000.0001) %MON dynstat_theta_del2           =   0.0000000000000E+00
(PID.TID 0000.0001) %MON dynstat_salt_max             =   3.0000000000000E+01
(PID.TID 0000.0001) %MON dynstat_salt_min             =   3.0000000000000E+01
(PID.TID 0000.0001) %MON dynstat_salt_mean            =   2.9999999999999E+01
(PID.TID 0000.0001) %MON dynstat_salt_sd              =   5.5777604757167E-13
(PID.TID 0000.0001) %MON dynstat_salt_del2            =   0.0000000000000E+00
(PID.TID 0000.0001) %MON trAdv_CFL_u_max              =   1.0898328011985E-02
(PID.TID 0000.0001) %MON trAdv_CFL_v_max              =   9.6304857242998E-03
(PID.TID 0000.0001) %MON trAdv_CFL_w_max              =   3.0029920639371E-09
(PID.TID 0000.0001) %MON advcfl_uvel_max              =   1.0898821876327E-02
(PID.TID 0000.0001) %MON advcfl_vvel_max              =   9.6432982275296E-03
(PID.TID 0000.0001) %MON advcfl_wvel_max              =   5.4538264667150E-09
(PID.TID 0000.0001) %MON advcfl_W_hf_max              =   0.0000000000000E+00
(PID.TID 0000.0001) %MON pe_b_mean                    =   2.4043798705056E-05
(PID.TID 0000.0001) %MON ke_max                       =   1.6524666721447E-02
(PID.TID 0000.0001) %MON ke_mean                      =   3.5227132134397E-03
(PID.TID 0000.0001) %MON ke_vol                       =   6.8893493896486E+15
(PID.TID 0000.0001) %MON vort_r_min                   =  -1.1929875368091E-06
(PID.TID 0000.0001) %MON vort_r_max                   =   3.8726840219868E-06
(PID.TID 0000.0001) %MON vort_a_mean                  =   1.0600000000000E-04
(PID.TID 0000.0001) %MON vort_a_sd                    =   3.5856302070893E-06
(PID.TID 0000.0001) %MON vort_p_mean                  =   1.1652272308690E-04
(PID.TID 0000.0001) %MON vort_p_sd                    =   4.1792807914209E-05
(PID.TID 0000.0001) %MON surfExpan_theta_mean         =   1.1725028602348E-19
(PID.TID 0000.0001) %MON surfExpan_salt_mean          =   1.7588427257841E-19
(PID.TID 0000.0001) // =======================================================
(PID.TID 0000.0001) // End MONITOR dynamic field statistics
(PID.TID 0000.0001) // =======================================================
 cg2d: Sum(rhs),rhsMax =  -9.44927002317030E-03  2.35579497801759E-01
 cg2d: Sum(rhs),rhsMax =  -9.44991423104437E-03  2.35584615565132E-01
 cg2d: Sum(rhs),rhsMax =  -9.45055803535192E-03  2.35589735083051E-01
 cg2d: Sum(rhs),rhsMax =  -9.45120143606944E-03  2.35594856352709E-01
 cg2d: Sum(rhs),rhsMax =  -9.45184443430565E-03  2.35599979371290E-01
 cg2d: Sum(rhs),rhsMax =  -9.45248703062676E-03  2.35605104135988E-01
 cg2d: Sum(rhs),rhsMax =  -9.45312922584192E-03  2.35610230643979E-01
 cg2d: Sum(rhs),rhsMax =  -9.45377102138258E-03  2.35615358892435E-01
 cg2d: Sum(rhs),rhsMax =  -9.45441241710275E-03  2.35620488878525E-01
 cg2d: Sum(rhs),rhsMax =  -9.45505341428855E-03  2.35625620599419E-01
 cg2d: Sum(rhs),rhsMax =  -9.45569401395548E-03  2.35630754052269E-01
 cg2d: Sum(rhs),rhsMax =  -9.45633421635033E-03  2.35635889234231E-01
 cg2d: Sum(rhs),rhsMax =  -9.45697402246064E-03  2.35641026142454E-01
 cg2d: Sum(rhs),rhsMax =  -9.45761343349216E-03  2.35646164774073E-01
 cg2d: Sum(rhs),rhsMax =  -9.45825244968862E-03  2.35651305126236E-01
 cg2d: Sum(rhs),rhsMax =  -9.45889107246941E-03  2.35656447196070E-01
 cg2d: Sum(rhs),rhsMax =  -9.45952930195930E-03  2.35661590980703E-01
 cg2d: Sum(rhs),rhsMax =  -9.46016713947996E-03  2.35666736477254E-01
 cg2d: Sum(rhs),rhsMax =  -9.46080458603723E-03  2.35671883682846E-01
 cg2d: Sum(rhs),rhsMax =  -9.46144164170389E-03  2.35677032594590E-01
 cg2d: Sum(rhs),rhsMax =  -9.46207830836564E-03  2.35682183209580E-01
 cg2d: Sum(rhs),rhsMax =  -9.46271458634335E-03  2.35687335524937E-01
 cg2d: Sum(rhs),rhsMax =  -9.46335047630265E-03  2.35692489537746E-01
 cg2d: Sum(rhs),rhsMax =  -9.46398597965803E-03  2.35697645245096E-01
 cg2d: Sum(rhs),rhsMax =  -9.46462109674603E-03  2.35702802644085E-01
 cg2d: Sum(rhs),rhsMax =  -9.46525582858260E-03  2.35707961731777E-01
 cg2d: Sum(rhs),rhsMax =  -9.46589017622109E-03  2.35713122505262E-01
 cg2d: Sum(rhs),rhsMax =  -9.46652414025434E-03  2.35718284961605E-01
 cg2d: Sum(rhs),rhsMax =  -9.46715772148875E-03  2.35723449097870E-01
 cg2d: Sum(rhs),rhsMax =  -9.46779092158392E-03  2.35728614911120E-01
 cg2d: Sum(rhs),rhsMax =  -9.46842374020653E-03  2.35733782398414E-01
 cg2d: Sum(rhs),rhsMax =  -9.46905617963828E-03  2.35738951556798E-01
 cg2d: Sum(rhs),rhsMax =  -9.46968823964922E-03  2.35744122383314E-01
 cg2d: Sum(rhs),rhsMax =  -9.47031992194237E-03  2.35749294875014E-01
 cg2d: Sum(rhs),rhsMax =  -9.47095122639079E-03  2.35754469028924E-01
 cg2d: Sum(rhs),rhsMax =  -9.47158215494862E-03  2.35759644842080E-01
 cg2d: Sum(rhs),rhsMax =  -9.47221270818588E-03  2.35764822311502E-01
 cg2d: Sum(rhs),rhsMax =  -9.47284288695388E-03  2.35770001434215E-01
 cg2d: Sum(rhs),rhsMax =  -9.47347269244656E-03  2.35775182207233E-01
 cg2d: Sum(rhs),rhsMax =  -9.47410212497200E-03  2.35780364627569E-01
 cg2d: Sum(rhs),rhsMax =  -9.47473118574916E-03  2.35785548692224E-01
 cg2d: Sum(rhs),rhsMax =  -9.47535987609811E-03  2.35790734398208E-01
 cg2d: Sum(rhs),rhsMax =  -9.47598819662577E-03  2.35795921742508E-01
 cg2d: Sum(rhs),rhsMax =  -9.47661614838748E-03  2.35801110722115E-01
 cg2d: Sum(rhs),rhsMax =  -9.47724373199321E-03  2.35806301334019E-01
 cg2d: Sum(rhs),rhsMax =  -9.47787094842899E-03  2.35811493575198E-01
 cg2d: Sum(rhs),rhsMax =  -9.47849779934292E-03  2.35816687442643E-01
 cg2d: Sum(rhs),rhsMax =  -9.47912428506175E-03  2.35821882933299E-01
 cg2d: Sum(rhs),rhsMax =  -9.47975040668520E-03  2.35827080044156E-01
 cg2d: Sum(rhs),rhsMax =  -9.48037616548596E-03  2.35832278772166E-01
 cg2d: Sum(rhs),rhsMax =  -9.48100156193822E-03  2.35837479114282E-01
 cg2d: Sum(rhs),rhsMax =  -9.48162659764894E-03  2.35842681067467E-01
 cg2d: Sum(rhs),rhsMax =  -9.48225127297790E-03  2.35847884628661E-01
 cg2d: Sum(rhs),rhsMax =  -9.48287558901432E-03  2.35853089794805E-01
 cg2d: Sum(rhs),rhsMax =  -9.48349954709168E-03  2.35858296562842E-01
 cg2d: Sum(rhs),rhsMax =  -9.48412314810855E-03  2.35863504929706E-01
 cg2d: Sum(rhs),rhsMax =  -9.48474639258806E-03  2.35868714892316E-01
 cg2d: Sum(rhs),rhsMax =  -9.48536928212700E-03  2.35873926447607E-01
 cg2d: Sum(rhs),rhsMax =  -9.48599181758363E-03  2.35879139592492E-01
 cg2d: Sum(rhs),rhsMax =  -9.48661400013753E-03  2.35884354323882E-01
 cg2d: Sum(rhs),rhsMax =  -9.48723583020260E-03  2.35889570638693E-01
 cg2d: Sum(rhs),rhsMax =  -9.48785730907312E-03  2.35894788533824E-01
 cg2d: Sum(rhs),rhsMax =  -9.48847843834488E-03  2.35900008006179E-01
 cg2d: Sum(rhs),rhsMax =  -9.48909921803450E-03  2.35905229052654E-01
 cg2d: Sum(rhs),rhsMax =  -9.48971964996160E-03  2.35910451670135E-01
 cg2d: Sum(rhs),rhsMax =  -9.49033973465518E-03  2.35915675855504E-01
 cg2d: Sum(rhs),rhsMax =  -9.49095947375277E-03  2.35920901605655E-01
 cg2d: Sum(rhs),rhsMax =  -9.49157886771719E-03  2.35926128917457E-01
 cg2d: Sum(rhs),rhsMax =  -9.49219791803544E-03  2.35931357787785E-01
 cg2d: Sum(rhs),rhsMax =  -9.49281662546543E-03  2.35936588213500E-01
 cg2d: Sum(rhs),rhsMax =  -9.49343499123677E-03  2.35941820191468E-01
 cg2d: Sum(rhs),rhsMax =  -9.49405301633499E-03  2.35947053718550E-01
(PID.TID 0000.0001)      cg2d_init_res =   2.87252823105926E-04
(PID.TID 0000.0001)      cg2d_iters(min,last) =      -1      67
(PID.TID 0000.0001)      cg2d_last_res =   8.75733594797824E-08
(PID.TID 0000.0001) // =======================================================
(PID.TID 0000.0001) // Begin MONITOR dynamic field statistics
(PID.TID 0000.0001) // =======================================================
(PID.TID 0000.0001) %MON time_tsnumber                =                 20520
(PID.TID 0000.0001) %MON time_secondsf                =   2.4624000000000E+07
(PID.TID 0000.0001) %MON dynstat_eta_max              =   4.0532606277668E-01
(PID.TID 0000.0001) %MON dynstat_eta_min              =  -1.2396429221325E-01
(PID.TID 0000.0001) %MON dynstat_eta_mean             =   1.1195706769977E-05
(PID.TID 0000.0001) %MON dynstat_eta_sd               =   1.5346298325507E-01
(PID.TID 0000.0001) %MON dynstat_eta_del2             =   3.8713313812886E-05
(PID.TID 0000.0001) %MON dynstat_uvel_max             =   1.8189838388574E-01
(PID.TID 0000.0001) %MON dynstat_uvel_min             =  -1.5113535797520E-01
(PID.TID 0000.0001) %MON dynstat_uvel_mean            =  -3.3722835689523E-08
(PID.TID 0000.0001) %MON dynstat_uvel_sd              =   6.2346882201653E-02
(PID.TID 0000.0001) %MON dynstat_uvel_del2            =   7.7887165234591E-05
(PID.TID 0000.0001) %MON dynstat_vvel_max             =   1.3356330998635E-01
(PID.TID 0000.0001) %MON dynstat_vvel_min             =  -1.6102463119441E-01
(PID.TID 0000.0001) %MON dynstat_vvel_mean            =   8.3257111332502E-08
(PID.TID 0000.0001) %MON dynstat_vvel_sd              =   5.7626273253398E-02
(PID.TID 0000.0001) %MON dynstat_vvel_del2            =   3.7774711778041E-05
(PID.TID 0000.0001) %MON dynstat_wvel_max             =   1.1328117558078E-08
(PID.TID 0000.0001) %MON dynstat_wvel_min             =  -3.5761150815233E-09
(PID.TID 0000.0001) %MON dynstat_wvel_mean            =   4.4396395221864E-21
(PID.TID 0000.0001) %MON dynstat_wvel_sd              =   3.8172974702209E-09
(PID.TID 0000.0001) %MON dynstat_wvel_del2            =   1.1096186315529E-12
(PID.TID 0000.0001) %MON dynstat_theta_max            =   2.0000000000000E+01
(PID.TID 0000.0001) %MON dynstat_theta_min            =   2.0000000000000E+01
(PID.TID 0000.0001) %MON dynstat_theta_mean           =   2.0000000000000E+01
(PID.TID 0000.0001) %MON dynstat_theta_sd             =   3.8014036363165E-13
(PID.TID 0000.0001) %MON dynstat_theta_del2           =   0.0000000000000E+00
(PID.TID 0000.0001) %MON dynstat_salt_max             =   3.0000000000000E+01
(PID.TID 0000.0001) %MON dynstat_salt_min             =   3.0000000000000E+01
(PID.TID 0000.0001) %MON dynstat_salt_mean            =   2.9999999999999E+01
(PID.TID 0000.0001) %MON dynstat_salt_sd              =   5.5777604757167E-13
(PID.TID 0000.0001) %MON dynstat_salt_del2            =   0.0000000000000E+00
(PID.TID 0000.0001) %MON trAdv_CFL_u_max              =   1.0913402018861E-02
(PID.TID 0000.0001) %MON trAdv_CFL_v_max              =   9.6486479229753E-03
(PID.TID 0000.0001) %MON trAdv_CFL_w_max              =   2.9939941772757E-09
(PID.TID 0000.0001) %MON advcfl_uvel_max              =   1.0913903033144E-02
(PID.TID 0000.0001) %MON advcfl_vvel_max              =   9.6614778716645E-03
(PID.TID 0000.0001) %MON advcfl_wvel_max              =   5.4374964278773E-09
(PID.TID 0000.0001) %MON advcfl_W_hf_max              =   0.0000000000000E+00
(PID.TID 0000.0001) %MON pe_b_mean                    =   2.4145186745064E-05
(PID.TID 0000.0001) %MON ke_max                       =   1.6570975795460E-02
(PID.TID 0000.0001) %MON ke_mean                      =   3.5376886979489E-03
(PID.TID 0000.0001) %MON ke_vol                       =   6.8893493896486E+15
(PID.TID 0000.0001) %MON vort_r_min                   =  -1.1962935056841E-06
(PID.TID 0000.0001) %MON vort_r_max                   =   3.8777965348475E-06
(PID.TID 0000.0001) %MON vort_a_mean                  =   1.0600000000000E-04
(PID.TID 0000.0001) %MON vort_a_sd                    =   3.5858606123496E-06
(PID.TID 0000.0001) %MON vort_p_mean                  =   1.1652272308690E-04
(PID.TID 0000.0001) %MON vort_p_sd                    =   4.1792814995719E-05
(PID.TID 0000.0001) %MON surfExpan_theta_mean         =   8.8806786615850E-20
(PID.TID 0000.0001) %MON surfExpan_salt_mean          =   1.3321270753153E-19
(PID.TID 0000.0001) // =======================================================
(PID.TID 0000.0001) // End MONITOR dynamic field statistics
(PID.TID 0000.0001) // =======================================================
 cg2d: Sum(rhs),rhsMax =  -9.49467070201493E-03  2.35952288791594E-01
 cg2d: Sum(rhs),rhsMax =  -9.49528804915113E-03  2.35957525407459E-01
 cg2d: Sum(rhs),rhsMax =  -9.49590505871716E-03  2.35962763562979E-01
 cg2d: Sum(rhs),rhsMax =  -9.49652173202775E-03  2.35968003254996E-01
 cg2d: Sum(rhs),rhsMax =  -9.49713806969799E-03  2.35973244480346E-01
 cg2d: Sum(rhs),rhsMax =  -9.49775407332665E-03  2.35978487235865E-01
 cg2d: Sum(rhs),rhsMax =  -9.49836974415158E-03  2.35983731518369E-01
 cg2d: Sum(rhs),rhsMax =  -9.49898508271279E-03  2.35988977324687E-01
 cg2d: Sum(rhs),rhsMax =  -9.49960009077865E-03  2.35994224651638E-01
 cg2d: Sum(rhs),rhsMax =  -9.50021476899560E-03  2.35999473496025E-01
 cg2d: Sum(rhs),rhsMax =  -9.50082911810419E-03  2.36004723854667E-01
 cg2d: Sum(rhs),rhsMax =  -9.50144313948668E-03  2.36009975724359E-01
 cg2d: Sum(rhs),rhsMax =  -9.50205683479862E-03  2.36015229101910E-01
 cg2d: Sum(rhs),rhsMax =  -9.50267020468583E-03  2.36020483984105E-01
 cg2d: Sum(rhs),rhsMax =  -9.50328325036551E-03  2.36025740367739E-01
 cg2d: Sum(rhs),rhsMax =  -9.50389597277717E-03  2.36030998249597E-01
 cg2d: Sum(rhs),rhsMax =  -9.50450837342528E-03  2.36036257626463E-01
 cg2d: Sum(rhs),rhsMax =  -9.50512045347836E-03  2.36041518495109E-01
 cg2d: Sum(rhs),rhsMax =  -9.50573221344448E-03  2.36046780852312E-01
 cg2d: Sum(rhs),rhsMax =  -9.50634365523692E-03  2.36052044694844E-01
 cg2d: Sum(rhs),rhsMax =  -9.50695477902520E-03  2.36057310019461E-01
 cg2d: Sum(rhs),rhsMax =  -9.50756558653906E-03  2.36062576822926E-01
 cg2d: Sum(rhs),rhsMax =  -9.50817607903885E-03  2.36067845101991E-01
 cg2d: Sum(rhs),rhsMax =  -9.50878625749681E-03  2.36073114853415E-01
 cg2d: Sum(rhs),rhsMax =  -9.50939612341516E-03  2.36078386073943E-01
 cg2d: Sum(rhs),rhsMax =  -9.51000567777104E-03  2.36083658760311E-01
 cg2d: Sum(rhs),rhsMax =  -9.51061492137560E-03  2.36088932909260E-01
 cg2d: Sum(rhs),rhsMax =  -9.51122385573153E-03  2.36094208517529E-01
 cg2d: Sum(rhs),rhsMax =  -9.51183248229555E-03  2.36099485581840E-01
 cg2d: Sum(rhs),rhsMax =  -9.51244080203622E-03  2.36104764098917E-01
 cg2d: Sum(rhs),rhsMax =  -9.51304881574974E-03  2.36110044065492E-01
 cg2d: Sum(rhs),rhsMax =  -9.51365652478723E-03  2.36115325478270E-01
 cg2d: Sum(rhs),rhsMax =  -9.51426393049296E-03  2.36120608333973E-01
 cg2d: Sum(rhs),rhsMax =  -9.51487103380455E-03  2.36125892629300E-01
 cg2d: Sum(rhs),rhsMax =  -9.51547783598327E-03  2.36131178360963E-01
 cg2d: Sum(rhs),rhsMax =  -9.51608433902363E-03  2.36136465525662E-01
 cg2d: Sum(rhs),rhsMax =  -9.51669054265941E-03  2.36141754120088E-01
 cg2d: Sum(rhs),rhsMax =  -9.51729644966426E-03  2.36147044140933E-01
 cg2d: Sum(rhs),rhsMax =  -9.51790206007317E-03  2.36152335584886E-01
 cg2d: Sum(rhs),rhsMax =  -9.51850737562290E-03  2.36157628448632E-01
 cg2d: Sum(rhs),rhsMax =  -9.51911239726470E-03  2.36162922728848E-01
 cg2d: Sum(rhs),rhsMax =  -9.51971712637771E-03  2.36168218422204E-01
 cg2d: Sum(rhs),rhsMax =  -9.52032156433144E-03  2.36173515525383E-01
 cg2d: Sum(rhs),rhsMax =  -9.52092571193267E-03  2.36178814035041E-01
 cg2d: Sum(rhs),rhsMax =  -9.52152957038968E-03  2.36184113947846E-01
 cg2d: Sum(rhs),rhsMax =  -9.52213314155107E-03  2.36189415260456E-01
 cg2d: Sum(rhs),rhsMax =  -9.52273642628242E-03  2.36194717969524E-01
 cg2d: Sum(rhs),rhsMax =  -9.52333942570919E-03  2.36200022071700E-01
 cg2d: Sum(rhs),rhsMax =  -9.52394214078605E-03  2.36205327563632E-01
 cg2d: Sum(rhs),rhsMax =  -9.52454457351717E-03  2.36210634441966E-01
 cg2d: Sum(rhs),rhsMax =  -9.52514672489897E-03  2.36215942703334E-01
 cg2d: Sum(rhs),rhsMax =  -9.52574859584687E-03  2.36221252344376E-01
 cg2d: Sum(rhs),rhsMax =  -9.52635018794118E-03  2.36226563361712E-01
 cg2d: Sum(rhs),rhsMax =  -9.52695150194742E-03  2.36231875751981E-01
 cg2d: Sum(rhs),rhsMax =  -9.52755253943557E-03  2.36237189511804E-01
 cg2d: Sum(rhs),rhsMax =  -9.52815330165677E-03  2.36242504637790E-01
 cg2d: Sum(rhs),rhsMax =  -9.52875379025667E-03  2.36247821126562E-01
 cg2d: Sum(rhs),rhsMax =  -9.52935400608187E-03  2.36253138974731E-01
 cg2d: Sum(rhs),rhsMax =  -9.52995395016997E-03  2.36258458178900E-01
 cg2d: Sum(rhs),rhsMax =  -9.53055362420313E-03  2.36263778735668E-01
 cg2d: Sum(rhs),rhsMax =  -9.53115302905527E-03  2.36269100641643E-01
 cg2d: Sum(rhs),rhsMax =  -9.53175216661922E-03  2.36274423893417E-01
 cg2d: Sum(rhs),rhsMax =  -9.53235103748274E-03  2.36279748487575E-01
 cg2d: Sum(rhs),rhsMax =  -9.53294964307163E-03  2.36285074420710E-01
 cg2d: Sum(rhs),rhsMax =  -9.53354798471620E-03  2.36290401689407E-01
 cg2d: Sum(rhs),rhsMax =  -9.53414606363542E-03  2.36295730290240E-01
 cg2d: Sum(rhs),rhsMax =  -9.53474388180596E-03  2.36301060219788E-01
 cg2d: Sum(rhs),rhsMax =  -9.53534143943677E-03  2.36306391474626E-01
 cg2d: Sum(rhs),rhsMax =  -9.53593873816544E-03  2.36311724051317E-01
 cg2d: Sum(rhs),rhsMax =  -9.53653577934436E-03  2.36317057946425E-01
 cg2d: Sum(rhs),rhsMax =  -9.53713256440867E-03  2.36322393156515E-01
 cg2d: Sum(rhs),rhsMax =  -9.53772909458010E-03  2.36327729678142E-01
(PID.TID 0000.0001)      cg2d_init_res =   2.86700876967298E-04
(PID.TID 0000.0001)      cg2d_iters(min,last) =      -1      67
(PID.TID 0000.0001)      cg2d_last_res =   8.73085392407673E-08
(PID.TID 0000.0001) // =======================================================
(PID.TID 0000.0001) // Begin MONITOR dynamic field statistics
(PID.TID 0000.0001) // =======================================================
(PID.TID 0000.0001) %MON time_tsnumber                =                 20592
(PID.TID 0000.0001) %MON time_secondsf                =   2.4710400000000E+07
(PID.TID 0000.0001) %MON dynstat_eta_max              =   4.0630345369381E-01
(PID.TID 0000.0001) %MON dynstat_eta_min              =  -1.2417793623025E-01
(PID.TID 0000.0001) %MON dynstat_eta_mean             =   1.1265333127039E-05
(PID.TID 0000.0001) %MON dynstat_eta_sd               =   1.5378413387576E-01
(PID.TID 0000.0001) %MON dynstat_eta_del2             =   3.8785481596537E-05
(PID.TID 0000.0001) %MON dynstat_uvel_max             =   1.8215778418111E-01
(PID.TID 0000.0001) %MON dynstat_uvel_min             =  -1.5151029354735E-01
(PID.TID 0000.0001) %MON dynstat_uvel_mean            =  -3.3621829186614E-08
(PID.TID 0000.0001) %MON dynstat_uvel_sd              =   6.2472749435232E-02
(PID.TID 0000.0001) %MON dynstat_uvel_del2            =   7.7958517868132E-05
(PID.TID 0000.0001) %MON dynstat_vvel_max             =   1.3390600543468E-01
(PID.TID 0000.0001) %MON dynstat_vvel_min             =  -1.6132032577980E-01
(PID.TID 0000.0001) %MON dynstat_vvel_mean            =   8.5016527655978E-08
(PID.TID 0000.0001) %MON dynstat_vvel_sd              =   5.7754174921217E-02
(PID.TID 0000.0001) %MON dynstat_vvel_del2            =   3.7782686948971E-05
(PID.TID 0000.0001) %MON dynstat_wvel_max             =   1.1295907221283E-08
(PID.TID 0000.0001) %MON dynstat_wvel_min             =  -3.6800230926019E-09
(PID.TID 0000.0001) %MON dynstat_wvel_mean            =  -3.0920240432250E-21
(PID.TID 0000.0001) %MON dynstat_wvel_sd              =   3.8031848261762E-09
(PID.TID 0000.0001) %MON dynstat_wvel_del2            =   1.1064287133595E-12
(PID.TID 0000.0001) %MON dynstat_theta_max            =   2.0000000000000E+01
(PID.TID 0000.0001) %MON dynstat_theta_min            =   2.0000000000000E+01
(PID.TID 0000.0001) %MON dynstat_theta_mean           =   2.0000000000000E+01
(PID.TID 0000.0001) %MON dynstat_theta_sd             =   3.8014036363165E-13
(PID.TID 0000.0001) %MON dynstat_theta_del2           =   0.0000000000000E+00
(PID.TID 0000.0001) %MON dynstat_salt_max             =   3.0000000000000E+01
(PID.TID 0000.0001) %MON dynstat_salt_min             =   3.0000000000000E+01
(PID.TID 0000.0001) %MON dynstat_salt_mean            =   2.9999999999999E+01
(PID.TID 0000.0001) %MON dynstat_salt_sd              =   5.5777604757167E-13
(PID.TID 0000.0001) %MON dynstat_salt_del2            =   0.0000000000000E+00
(PID.TID 0000.0001) %MON trAdv_CFL_u_max              =   1.0928958982741E-02
(PID.TID 0000.0001) %MON trAdv_CFL_v_max              =   9.6663724054067E-03
(PID.TID 0000.0001) %MON trAdv_CFL_w_max              =   2.9854748610786E-09
(PID.TID 0000.0001) %MON advcfl_uvel_max              =   1.0929467050867E-02
(PID.TID 0000.0001) %MON advcfl_vvel_max              =   9.6792195467882E-03
(PID.TID 0000.0001) %MON advcfl_wvel_max              =   5.4220354662160E-09
(PID.TID 0000.0001) %MON advcfl_W_hf_max              =   0.0000000000000E+00
(PID.TID 0000.0001) %MON pe_b_mean                    =   2.4246349321776E-05
(PID.TID 0000.0001) %MON ke_max                       =   1.6618805058916E-02
(PID.TID 0000.0001) %MON ke_mean                      =   3.5526425920232E-03
(PID.TID 0000.0001) %MON ke_vol                       =   6.8893493896486E+15
(PID.TID 0000.0001) %MON vort_r_min                   =  -1.1996497390496E-06
(PID.TID 0000.0001) %MON vort_r_max                   =   3.8830912483614E-06
(PID.TID 0000.0001) %MON vort_a_mean                  =   1.0600000000000E-04
(PID.TID 0000.0001) %MON vort_a_sd                    =   3.5860921530949E-06
(PID.TID 0000.0001) %MON vort_p_mean                  =   1.1652272308690E-04
(PID.TID 0000.0001) %MON vort_p_sd                    =   4.1792824025209E-05
(PID.TID 0000.0001) %MON surfExpan_theta_mean         =  -6.1836797410959E-20
(PID.TID 0000.0001) %MON surfExpan_salt_mean          =  -9.2767512190524E-20
(PID.TID 0000.0001) // =======================================================
(PID.TID 0000.0001) // End MONITOR dynamic field statistics
(PID.TID 0000.0001) // =======================================================
 cg2d: Sum(rhs),rhsMax =  -9.53832537127327E-03  2.36333067507860E-01
 cg2d: Sum(rhs),rhsMax =  -9.53892139502731E-03  2.36338406642214E-01
 cg2d: Sum(rhs),rhsMax =  -9.53951716818303E-03  2.36343747077755E-01
 cg2d: Sum(rhs),rhsMax =  -9.54011269122854E-03  2.36349088811018E-01
 cg2d: Sum(rhs),rhsMax =  -9.54070796551038E-03  2.36354431838550E-01
 cg2d: Sum(rhs),rhsMax =  -9.54130299281407E-03  2.36359776156878E-01
 cg2d: Sum(rhs),rhsMax =  -9.54189777380491E-03  2.36365121762534E-01
 cg2d: Sum(rhs),rhsMax =  -9.54249231036964E-03  2.36370468652048E-01
 cg2d: Sum(rhs),rhsMax =  -9.54308660313937E-03  2.36375816821949E-01
 cg2d: Sum(rhs),rhsMax =  -9.54368065415528E-03  2.36381166268741E-01
 cg2d: Sum(rhs),rhsMax =  -9.54427446475039E-03  2.36386516988951E-01
 cg2d: Sum(rhs),rhsMax =  -9.54486803477987E-03  2.36391868979091E-01
 cg2d: Sum(rhs),rhsMax =  -9.54546136731236E-03  2.36397222235670E-01
 cg2d: Sum(rhs),rhsMax =  -9.54605446248407E-03  2.36402576755189E-01
 cg2d: Sum(rhs),rhsMax =  -9.54664732207705E-03  2.36407932534158E-01
 cg2d: Sum(rhs),rhsMax =  -9.54723994710933E-03  2.36413289569059E-01
 cg2d: Sum(rhs),rhsMax =  -9.54783233913239E-03  2.36418647856404E-01
 cg2d: Sum(rhs),rhsMax =  -9.54842449904679E-03  2.36424007392674E-01
 cg2d: Sum(rhs),rhsMax =  -9.54901642863756E-03  2.36429368174366E-01
 cg2d: Sum(rhs),rhsMax =  -9.54960812896570E-03  2.36434730197952E-01
 cg2d: Sum(rhs),rhsMax =  -9.55019960130773E-03  2.36440093459919E-01
 cg2d: Sum(rhs),rhsMax =  -9.55079084721409E-03  2.36445457956747E-01
 cg2d: Sum(rhs),rhsMax =  -9.55138186737527E-03  2.36450823684900E-01
 cg2d: Sum(rhs),rhsMax =  -9.55197266375539E-03  2.36456190640855E-01
 cg2d: Sum(rhs),rhsMax =  -9.55256323685668E-03  2.36461558821079E-01
 cg2d: Sum(rhs),rhsMax =  -9.55315358899089E-03  2.36466928222033E-01
 cg2d: Sum(rhs),rhsMax =  -9.55374372051433E-03  2.36472298840179E-01
 cg2d: Sum(rhs),rhsMax =  -9.55433363285880E-03  2.36477670671966E-01
 cg2d: Sum(rhs),rhsMax =  -9.55492332779449E-03  2.36483043713854E-01
 cg2d: Sum(rhs),rhsMax =  -9.55551280667750E-03  2.36488417962294E-01
 cg2d: Sum(rhs),rhsMax =  -9.55610206949866E-03  2.36493793413726E-01
 cg2d: Sum(rhs),rhsMax =  -9.55669111948902E-03  2.36499170064595E-01
 cg2d: Sum(rhs),rhsMax =  -9.55727995628850E-03  2.36504547911340E-01
 cg2d: Sum(rhs),rhsMax =  -9.55786858162687E-03  2.36509926950400E-01
 cg2d: Sum(rhs),rhsMax =  -9.55845699764046E-03  2.36515307178207E-01
 cg2d: Sum(rhs),rhsMax =  -9.55904520446096E-03  2.36520688591180E-01
 cg2d: Sum(rhs),rhsMax =  -9.55963320368603E-03  2.36526071185754E-01
 cg2d: Sum(rhs),rhsMax =  -9.56022099669735E-03  2.36531454958356E-01
 cg2d: Sum(rhs),rhsMax =  -9.56080858478758E-03  2.36536839905399E-01
 cg2d: Sum(rhs),rhsMax =  -9.56139596959352E-03  2.36542226023294E-01
 cg2d: Sum(rhs),rhsMax =  -9.56198315167573E-03  2.36547613308464E-01
 cg2d: Sum(rhs),rhsMax =  -9.56257013239399E-03  2.36553001757318E-01
 cg2d: Sum(rhs),rhsMax =  -9.56315691360328E-03  2.36558391366257E-01
 cg2d: Sum(rhs),rhsMax =  -9.56374349612677E-03  2.36563782131682E-01
 cg2d: Sum(rhs),rhsMax =  -9.56432988093603E-03  2.36569174049999E-01
 cg2d: Sum(rhs),rhsMax =  -9.56491606985651E-03  2.36574567117611E-01
 cg2d: Sum(rhs),rhsMax =  -9.56550206389401E-03  2.36579961330893E-01
 cg2d: Sum(rhs),rhsMax =  -9.56608786399004E-03  2.36585356686251E-01
 cg2d: Sum(rhs),rhsMax =  -9.56667347208554E-03  2.36590753180061E-01
 cg2d: Sum(rhs),rhsMax =  -9.56725888895856E-03  2.36596150808718E-01
 cg2d: Sum(rhs),rhsMax =  -9.56784411582283E-03  2.36601549568598E-01
 cg2d: Sum(rhs),rhsMax =  -9.56842915431245E-03  2.36606949456074E-01
 cg2d: Sum(rhs),rhsMax =  -9.56901400519801E-03  2.36612350467529E-01
 cg2d: Sum(rhs),rhsMax =  -9.56959867040486E-03  2.36617752599327E-01
 cg2d: Sum(rhs),rhsMax =  -9.57018315007873E-03  2.36623155847839E-01
 cg2d: Sum(rhs),rhsMax =  -9.57076744588350E-03  2.36628560209437E-01
 cg2d: Sum(rhs),rhsMax =  -9.57135155934180E-03  2.36633965680471E-01
 cg2d: Sum(rhs),rhsMax =  -9.57193549128126E-03  2.36639372257310E-01
 cg2d: Sum(rhs),rhsMax =  -9.57251924324969E-03  2.36644779936306E-01
 cg2d: Sum(rhs),rhsMax =  -9.57310281670719E-03  2.36650188713816E-01
 cg2d: Sum(rhs),rhsMax =  -9.57368621213302E-03  2.36655598586183E-01
 cg2d: Sum(rhs),rhsMax =  -9.57426943110731E-03  2.36661009549756E-01
 cg2d: Sum(rhs),rhsMax =  -9.57485247534362E-03  2.36666421600889E-01
 cg2d: Sum(rhs),rhsMax =  -9.57543534514440E-03  2.36671834735916E-01
 cg2d: Sum(rhs),rhsMax =  -9.57601804229931E-03  2.36677248951174E-01
 cg2d: Sum(rhs),rhsMax =  -9.57660056761794E-03  2.36682664242998E-01
 cg2d: Sum(rhs),rhsMax =  -9.57718292285340E-03  2.36688080607723E-01
 cg2d: Sum(rhs),rhsMax =  -9.57776510854309E-03  2.36693498041680E-01
 cg2d: Sum(rhs),rhsMax =  -9.57834712660760E-03  2.36698916541188E-01
 cg2d: Sum(rhs),rhsMax =  -9.57892897715672E-03  2.36704336102574E-01
 cg2d: Sum(rhs),rhsMax =  -9.57951066212166E-03  2.36709756722164E-01
 cg2d: Sum(rhs),rhsMax =  -9.58009218256092E-03  2.36715178396274E-01
(PID.TID 0000.0001)      cg2d_init_res =   2.86090004256084E-04
(PID.TID 0000.0001)      cg2d_iters(min,last) =      -1      67
(PID.TID 0000.0001)      cg2d_last_res =   8.68516052503923E-08
(PID.TID 0000.0001) // =======================================================
(PID.TID 0000.0001) // Begin MONITOR dynamic field statistics
(PID.TID 0000.0001) // =======================================================
(PID.TID 0000.0001) %MON time_tsnumber                =                 20664
(PID.TID 0000.0001) %MON time_secondsf                =   2.4796800000000E+07
(PID.TID 0000.0001) %MON dynstat_eta_max              =   4.0727809571524E-01
(PID.TID 0000.0001) %MON dynstat_eta_min              =  -1.2438654617773E-01
(PID.TID 0000.0001) %MON dynstat_eta_mean             =   1.1333903501559E-05
(PID.TID 0000.0001) %MON dynstat_eta_sd               =   1.5410391825071E-01
(PID.TID 0000.0001) %MON dynstat_eta_del2             =   3.8857769376245E-05
(PID.TID 0000.0001) %MON dynstat_uvel_max             =   1.8242503096061E-01
(PID.TID 0000.0001) %MON dynstat_uvel_min             =  -1.5188993367139E-01
(PID.TID 0000.0001) %MON dynstat_uvel_mean            =  -3.2837906655328E-08
(PID.TID 0000.0001) %MON dynstat_uvel_sd              =   6.2598852028190E-02
(PID.TID 0000.0001) %MON dynstat_uvel_del2            =   7.8032647472364E-05
(PID.TID 0000.0001) %MON dynstat_vvel_max             =   1.3425054507845E-01
(PID.TID 0000.0001) %MON dynstat_vvel_min             =  -1.6160916302153E-01
(PID.TID 0000.0001) %MON dynstat_vvel_mean            =   8.6893042764800E-08
(PID.TID 0000.0001) %MON dynstat_vvel_sd              =   5.7880852097850E-02
(PID.TID 0000.0001) %MON dynstat_vvel_del2            =   3.7787571130454E-05
(PID.TID 0000.0001) %MON dynstat_wvel_max             =   1.1265372863199E-08
(PID.TID 0000.0001) %MON dynstat_wvel_min             =  -3.7650877379929E-09
(PID.TID 0000.0001) %MON dynstat_wvel_mean            =   2.1696796466131E-20
(PID.TID 0000.0001) %MON dynstat_wvel_sd              =   3.7893618347860E-09
(PID.TID 0000.0001) %MON dynstat_wvel_del2            =   1.1032199448493E-12
(PID.TID 0000.0001) %MON dynstat_theta_max            =   2.0000000000000E+01
(PID.TID 0000.0001) %MON dynstat_theta_min            =   2.0000000000000E+01
(PID.TID 0000.0001) %MON dynstat_theta_mean           =   2.0000000000000E+01
(PID.TID 0000.0001) %MON dynstat_theta_sd             =   3.8014036363165E-13
(PID.TID 0000.0001) %MON dynstat_theta_del2           =   0.0000000000000E+00
(PID.TID 0000.0001) %MON dynstat_salt_max             =   3.0000000000000E+01
(PID.TID 0000.0001) %MON dynstat_salt_min             =   3.0000000000000E+01
(PID.TID 0000.0001) %MON dynstat_salt_mean            =   2.9999999999999E+01
(PID.TID 0000.0001) %MON dynstat_salt_sd              =   5.5777604757167E-13
(PID.TID 0000.0001) %MON dynstat_salt_del2            =   0.0000000000000E+00
(PID.TID 0000.0001) %MON trAdv_CFL_u_max              =   1.0944986947500E-02
(PID.TID 0000.0001) %MON trAdv_CFL_v_max              =   9.6836855674953E-03
(PID.TID 0000.0001) %MON trAdv_CFL_w_max              =   2.9773992418494E-09
(PID.TID 0000.0001) %MON advcfl_uvel_max              =   1.0945501857637E-02
(PID.TID 0000.0001) %MON advcfl_vvel_max              =   9.6965497812916E-03
(PID.TID 0000.0001) %MON advcfl_wvel_max              =   5.4073789743357E-09
(PID.TID 0000.0001) %MON advcfl_W_hf_max              =   0.0000000000000E+00
(PID.TID 0000.0001) %MON pe_b_mean                    =   2.4347291663637E-05
(PID.TID 0000.0001) %MON ke_max                       =   1.6668110345215E-02
(PID.TID 0000.0001) %MON ke_mean                      =   3.5675729855881E-03
(PID.TID 0000.0001) %MON ke_vol                       =   6.8893493896486E+15
(PID.TID 0000.0001) %MON vort_r_min                   =  -1.2035516228490E-06
(PID.TID 0000.0001) %MON vort_r_max                   =   3.8885635866248E-06
(PID.TID 0000.0001) %MON vort_a_mean                  =   1.0600000000000E-04
(PID.TID 0000.0001) %MON vort_a_sd                    =   3.5863246417647E-06
(PID.TID 0000.0001) %MON vort_p_mean                  =   1.1652272308690E-04
(PID.TID 0000.0001) %MON vort_p_sd                    =   4.1792834929654E-05
(PID.TID 0000.0001) %MON surfExpan_theta_mean         =   4.3395497565749E-19
(PID.TID 0000.0001) %MON surfExpan_salt_mean          =   6.5093246348624E-19
(PID.TID 0000.0001) // =======================================================
(PID.TID 0000.0001) // End MONITOR dynamic field statistics
(PID.TID 0000.0001) // =======================================================
 cg2d: Sum(rhs),rhsMax =  -9.58067353989408E-03  2.36720601121215E-01
 cg2d: Sum(rhs),rhsMax =  -9.58125473487694E-03  2.36726024893301E-01
 cg2d: Sum(rhs),rhsMax =  -9.58183576903283E-03  2.36731449708844E-01
 cg2d: Sum(rhs),rhsMax =  -9.58241664274741E-03  2.36736875564146E-01
 cg2d: Sum(rhs),rhsMax =  -9.58299735798966E-03  2.36742302455516E-01
 cg2d: Sum(rhs),rhsMax =  -9.58357791606195E-03  2.36747730379252E-01
 cg2d: Sum(rhs),rhsMax =  -9.58415831729365E-03  2.36753159331645E-01
 cg2d: Sum(rhs),rhsMax =  -9.58473856306140E-03  2.36758589309008E-01
 cg2d: Sum(rhs),rhsMax =  -9.58531865449655E-03  2.36764020307615E-01
 cg2d: Sum(rhs),rhsMax =  -9.58589859320655E-03  2.36769452323768E-01
 cg2d: Sum(rhs),rhsMax =  -9.58647838010928E-03  2.36774885353752E-01
 cg2d: Sum(rhs),rhsMax =  -9.58705801629707E-03  2.36780319393847E-01
 cg2d: Sum(rhs),rhsMax =  -9.58763750276608E-03  2.36785754440337E-01
 cg2d: Sum(rhs),rhsMax =  -9.58821684061447E-03  2.36791190489505E-01
 cg2d: Sum(rhs),rhsMax =  -9.58879603068219E-03  2.36796627537617E-01
 cg2d: Sum(rhs),rhsMax =  -9.58937507463691E-03  2.36802065580957E-01
 cg2d: Sum(rhs),rhsMax =  -9.58995397393116E-03  2.36807504615793E-01
 cg2d: Sum(rhs),rhsMax =  -9.59053272843451E-03  2.36812944638395E-01
 cg2d: Sum(rhs),rhsMax =  -9.59111133974761E-03  2.36818385645024E-01
 cg2d: Sum(rhs),rhsMax =  -9.59168980956513E-03  2.36823827631948E-01
 cg2d: Sum(rhs),rhsMax =  -9.59226813827579E-03  2.36829270595420E-01
 cg2d: Sum(rhs),rhsMax =  -9.59284632686171E-03  2.36834714531706E-01
 cg2d: Sum(rhs),rhsMax =  -9.59342437698860E-03  2.36840159437065E-01
 cg2d: Sum(rhs),rhsMax =  -9.59400228970578E-03  2.36845605307738E-01
 cg2d: Sum(rhs),rhsMax =  -9.59458006569823E-03  2.36851052139984E-01
 cg2d: Sum(rhs),rhsMax =  -9.59515770601438E-03  2.36856499930043E-01
 cg2d: Sum(rhs),rhsMax =  -9.59573521151176E-03  2.36861948674166E-01
 cg2d: Sum(rhs),rhsMax =  -9.59631258406981E-03  2.36867398368596E-01
 cg2d: Sum(rhs),rhsMax =  -9.59688982412774E-03  2.36872849009572E-01
 cg2d: Sum(rhs),rhsMax =  -9.59746693267982E-03  2.36878300593329E-01
 cg2d: Sum(rhs),rhsMax =  -9.59804391089567E-03  2.36883753116109E-01
 cg2d: Sum(rhs),rhsMax =  -9.59862075988831E-03  2.36889206574144E-01
 cg2d: Sum(rhs),rhsMax =  -9.59919748076895E-03  2.36894660963652E-01
 cg2d: Sum(rhs),rhsMax =  -9.59977407388759E-03  2.36900116280874E-01
 cg2d: Sum(rhs),rhsMax =  -9.60035054094180E-03  2.36905572522030E-01
 cg2d: Sum(rhs),rhsMax =  -9.60092688300293E-03  2.36911029683344E-01
 cg2d: Sum(rhs),rhsMax =  -9.60150310088015E-03  2.36916487761039E-01
 cg2d: Sum(rhs),rhsMax =  -9.60207919509186E-03  2.36921946751333E-01
 cg2d: Sum(rhs),rhsMax =  -9.60265516710196E-03  2.36927406650437E-01
 cg2d: Sum(rhs),rhsMax =  -9.60323101831341E-03  2.36932867454573E-01
 cg2d: Sum(rhs),rhsMax =  -9.60380674878660E-03  2.36938329159944E-01
 cg2d: Sum(rhs),rhsMax =  -9.60438236036416E-03  2.36943791762763E-01
 cg2d: Sum(rhs),rhsMax =  -9.60495785332854E-03  2.36949255259233E-01
 cg2d: Sum(rhs),rhsMax =  -9.60553322879485E-03  2.36954719645567E-01
 cg2d: Sum(rhs),rhsMax =  -9.60610848807533E-03  2.36960184917957E-01
 cg2d: Sum(rhs),rhsMax =  -9.60668363221591E-03  2.36965651072611E-01
 cg2d: Sum(rhs),rhsMax =  -9.60725866170466E-03  2.36971118105722E-01
 cg2d: Sum(rhs),rhsMax =  -9.60783357722457E-03  2.36976586013485E-01
 cg2d: Sum(rhs),rhsMax =  -9.60840838053859E-03  2.36982054792096E-01
 cg2d: Sum(rhs),rhsMax =  -9.60898307179973E-03  2.36987524437741E-01
 cg2d: Sum(rhs),rhsMax =  -9.60955765247393E-03  2.36992994946609E-01
 cg2d: Sum(rhs),rhsMax =  -9.61013212338809E-03  2.36998466314897E-01
 cg2d: Sum(rhs),rhsMax =  -9.61070648577511E-03  2.37003938538776E-01
 cg2d: Sum(rhs),rhsMax =  -9.61128074016177E-03  2.37009411614433E-01
 cg2d: Sum(rhs),rhsMax =  -9.61185488736131E-03  2.37014885538049E-01
 cg2d: Sum(rhs),rhsMax =  -9.61242892849026E-03  2.37020360305798E-01
 cg2d: Sum(rhs),rhsMax =  -9.61300286437794E-03  2.37025835913861E-01
 cg2d: Sum(rhs),rhsMax =  -9.61357669546381E-03  2.37031312358405E-01
 cg2d: Sum(rhs),rhsMax =  -9.61415042372234E-03  2.37036789635612E-01
 cg2d: Sum(rhs),rhsMax =  -9.61472404887487E-03  2.37042267741640E-01
 cg2d: Sum(rhs),rhsMax =  -9.61529757235778E-03  2.37047746672661E-01
 cg2d: Sum(rhs),rhsMax =  -9.61587099525792E-03  2.37053226424847E-01
 cg2d: Sum(rhs),rhsMax =  -9.61644431815391E-03  2.37058706994346E-01
 cg2d: Sum(rhs),rhsMax =  -9.61701754176105E-03  2.37064188377328E-01
 cg2d: Sum(rhs),rhsMax =  -9.61759066725091E-03  2.37069670569954E-01
 cg2d: Sum(rhs),rhsMax =  -9.61816369557567E-03  2.37075153568378E-01
 cg2d: Sum(rhs),rhsMax =  -9.61873662670956E-03  2.37080637368755E-01
 cg2d: Sum(rhs),rhsMax =  -9.61930946265676E-03  2.37086121967239E-01
 cg2d: Sum(rhs),rhsMax =  -9.61988220384163E-03  2.37091607359981E-01
 cg2d: Sum(rhs),rhsMax =  -9.62045485085946E-03  2.37097093543129E-01
 cg2d: Sum(rhs),rhsMax =  -9.62102740465089E-03  2.37102580512829E-01
 cg2d: Sum(rhs),rhsMax =  -9.62159986600188E-03  2.37108068265230E-01
(PID.TID 0000.0001)      cg2d_init_res =   2.85414235475746E-04
(PID.TID 0000.0001)      cg2d_iters(min,last) =      -1      67
(PID.TID 0000.0001)      cg2d_last_res =   8.62891404496739E-08
(PID.TID 0000.0001) // =======================================================
(PID.TID 0000.0001) // Begin MONITOR dynamic field statistics
(PID.TID 0000.0001) // =======================================================
(PID.TID 0000.0001) %MON time_tsnumber                =                 20736
(PID.TID 0000.0001) %MON time_secondsf                =   2.4883200000000E+07
(PID.TID 0000.0001) %MON dynstat_eta_max              =   4.0825014130387E-01
(PID.TID 0000.0001) %MON dynstat_eta_min              =  -1.2458983758444E-01
(PID.TID 0000.0001) %MON dynstat_eta_mean             =   1.1401892063583E-05
(PID.TID 0000.0001) %MON dynstat_eta_sd               =   1.5442236239310E-01
(PID.TID 0000.0001) %MON dynstat_eta_del2             =   3.8930166462092E-05
(PID.TID 0000.0001) %MON dynstat_uvel_max             =   1.8269978710722E-01
(PID.TID 0000.0001) %MON dynstat_uvel_min             =  -1.5227345416180E-01
(PID.TID 0000.0001) %MON dynstat_uvel_mean            =  -3.1374549365905E-08
(PID.TID 0000.0001) %MON dynstat_uvel_sd              =   6.2725238440563E-02
(PID.TID 0000.0001) %MON dynstat_uvel_del2            =   7.8109359546181E-05
(PID.TID 0000.0001) %MON dynstat_vvel_max             =   1.3459639101384E-01
(PID.TID 0000.0001) %MON dynstat_vvel_min             =  -1.6189169657250E-01
(PID.TID 0000.0001) %MON dynstat_vvel_mean            =   8.8807132219429E-08
(PID.TID 0000.0001) %MON dynstat_vvel_sd              =   5.8006227835121E-02
(PID.TID 0000.0001) %MON dynstat_vvel_del2            =   3.7789434646973E-05
(PID.TID 0000.0001) %MON dynstat_wvel_max             =   1.1236835953023E-08
(PID.TID 0000.0001) %MON dynstat_wvel_min             =  -3.8430720366887E-09
(PID.TID 0000.0001) %MON dynstat_wvel_mean            =   1.1202905120121E-20
(PID.TID 0000.0001) %MON dynstat_wvel_sd              =   3.7758499862671E-09
(PID.TID 0000.0001) %MON dynstat_wvel_del2            =   1.1000399687383E-12
(PID.TID 0000.0001) %MON dynstat_theta_max            =   2.0000000000000E+01
(PID.TID 0000.0001) %MON dynstat_theta_min            =   2.0000000000000E+01
(PID.TID 0000.0001) %MON dynstat_theta_mean           =   2.0000000000000E+01
(PID.TID 0000.0001) %MON dynstat_theta_sd             =   3.8014036363165E-13
(PID.TID 0000.0001) %MON dynstat_theta_del2           =   0.0000000000000E+00
(PID.TID 0000.0001) %MON dynstat_salt_max             =   3.0000000000000E+01
(PID.TID 0000.0001) %MON dynstat_salt_min             =   3.0000000000000E+01
(PID.TID 0000.0001) %MON dynstat_salt_mean            =   2.9999999999999E+01
(PID.TID 0000.0001) %MON dynstat_salt_sd              =   5.5777604757167E-13
(PID.TID 0000.0001) %MON dynstat_salt_del2            =   0.0000000000000E+00
(PID.TID 0000.0001) %MON trAdv_CFL_u_max              =   1.0961465797517E-02
(PID.TID 0000.0001) %MON trAdv_CFL_v_max              =   9.7006204977344E-03
(PID.TID 0000.0001) %MON trAdv_CFL_w_max              =   2.9697154550905E-09
(PID.TID 0000.0001) %MON advcfl_uvel_max              =   1.0961987226433E-02
(PID.TID 0000.0001) %MON advcfl_vvel_max              =   9.7135017943499E-03
(PID.TID 0000.0001) %MON advcfl_wvel_max              =   5.3936812574510E-09
(PID.TID 0000.0001) %MON advcfl_W_hf_max              =   0.0000000000000E+00
(PID.TID 0000.0001) %MON pe_b_mean                    =   2.4448019319854E-05
(PID.TID 0000.0001) %MON ke_max                       =   1.6718823006599E-02
(PID.TID 0000.0001) %MON ke_mean                      =   3.5824781116280E-03
(PID.TID 0000.0001) %MON ke_vol                       =   6.8893493896486E+15
(PID.TID 0000.0001) %MON vort_r_min                   =  -1.2074408340672E-06
(PID.TID 0000.0001) %MON vort_r_max                   =   3.8942060045543E-06
(PID.TID 0000.0001) %MON vort_a_mean                  =   1.0600000000000E-04
(PID.TID 0000.0001) %MON vort_a_sd                    =   3.5865578697431E-06
(PID.TID 0000.0001) %MON vort_p_mean                  =   1.1652272308690E-04
(PID.TID 0000.0001) %MON vort_p_sd                    =   4.1792847580027E-05
(PID.TID 0000.0001) %MON surfExpan_theta_mean         =   2.2405544086723E-19
(PID.TID 0000.0001) %MON surfExpan_salt_mean          =   3.3607400319448E-19
(PID.TID 0000.0001) // =======================================================
(PID.TID 0000.0001) // End MONITOR dynamic field statistics
(PID.TID 0000.0001) // =======================================================
 cg2d: Sum(rhs),rhsMax =  -9.62217223582579E-03  2.37113556796475E-01
 cg2d: Sum(rhs),rhsMax =  -9.62274451513490E-03  2.37119046102706E-01
 cg2d: Sum(rhs),rhsMax =  -9.62331670444001E-03  2.37124536180056E-01
 cg2d: Sum(rhs),rhsMax =  -9.62388880454291E-03  2.37130027024671E-01
 cg2d: Sum(rhs),rhsMax =  -9.62446081599905E-03  2.37135518632679E-01
 cg2d: Sum(rhs),rhsMax =  -9.62503274022500E-03  2.37141011000223E-01
 cg2d: Sum(rhs),rhsMax =  -9.62560457761825E-03  2.37146504123425E-01
 cg2d: Sum(rhs),rhsMax =  -9.62617632909809E-03  2.37151997998425E-01
 cg2d: Sum(rhs),rhsMax =  -9.62674799533719E-03  2.37157492621349E-01
 cg2d: Sum(rhs),rhsMax =  -9.62731957721181E-03  2.37162987988320E-01
 cg2d: Sum(rhs),rhsMax =  -9.62789107506119E-03  2.37168484095465E-01
 cg2d: Sum(rhs),rhsMax =  -9.62846249008555E-03  2.37173980938903E-01
 cg2d: Sum(rhs),rhsMax =  -9.62903382333815E-03  2.37179478514764E-01
 cg2d: Sum(rhs),rhsMax =  -9.62960507485228E-03  2.37184976819162E-01
 cg2d: Sum(rhs),rhsMax =  -9.63017624543792E-03  2.37190475848212E-01
 cg2d: Sum(rhs),rhsMax =  -9.63074733611220E-03  2.37195975598041E-01
 cg2d: Sum(rhs),rhsMax =  -9.63131834775898E-03  2.37201476064753E-01
 cg2d: Sum(rhs),rhsMax =  -9.63188928133090E-03  2.37206977244465E-01
 cg2d: Sum(rhs),rhsMax =  -9.63246013693627E-03  2.37212479133293E-01
 cg2d: Sum(rhs),rhsMax =  -9.63303091556629E-03  2.37217981727331E-01
 cg2d: Sum(rhs),rhsMax =  -9.63360161768214E-03  2.37223485022705E-01
 cg2d: Sum(rhs),rhsMax =  -9.63417224429148E-03  2.37228989015509E-01
 cg2d: Sum(rhs),rhsMax =  -9.63474279613953E-03  2.37234493701855E-01
 cg2d: Sum(rhs),rhsMax =  -9.63531327384225E-03  2.37239999077839E-01
 cg2d: Sum(rhs),rhsMax =  -9.63588367800159E-03  2.37245505139569E-01
 cg2d: Sum(rhs),rhsMax =  -9.63645400920358E-03  2.37251011883141E-01
 cg2d: Sum(rhs),rhsMax =  -9.63702426872377E-03  2.37256519304657E-01
 cg2d: Sum(rhs),rhsMax =  -9.63759445676978E-03  2.37262027400210E-01
 cg2d: Sum(rhs),rhsMax =  -9.63816457400615E-03  2.37267536165890E-01
 cg2d: Sum(rhs),rhsMax =  -9.63873462087947E-03  2.37273045597800E-01
 cg2d: Sum(rhs),rhsMax =  -9.63930459857807E-03  2.37278555692031E-01
 cg2d: Sum(rhs),rhsMax =  -9.63987450738774E-03  2.37284066444668E-01
 cg2d: Sum(rhs),rhsMax =  -9.64044434857419E-03  2.37289577851806E-01
 cg2d: Sum(rhs),rhsMax =  -9.64101412166821E-03  2.37295089909532E-01
 cg2d: Sum(rhs),rhsMax =  -9.64158382816712E-03  2.37300602613925E-01
 cg2d: Sum(rhs),rhsMax =  -9.64215346876722E-03  2.37306115961080E-01
 cg2d: Sum(rhs),rhsMax =  -9.64272304392117E-03  2.37311629947075E-01
 cg2d: Sum(rhs),rhsMax =  -9.64329255437247E-03  2.37317144567985E-01
 cg2d: Sum(rhs),rhsMax =  -9.64386200020685E-03  2.37322659819904E-01
 cg2d: Sum(rhs),rhsMax =  -9.64443138233134E-03  2.37328175698901E-01
 cg2d: Sum(rhs),rhsMax =  -9.64500070158378E-03  2.37333692201061E-01
 cg2d: Sum(rhs),rhsMax =  -9.64556995843083E-03  2.37339209322453E-01
 cg2d: Sum(rhs),rhsMax =  -9.64613915378547E-03  2.37344727059158E-01
 cg2d: Sum(rhs),rhsMax =  -9.64670828806989E-03  2.37350245407244E-01
 cg2d: Sum(rhs),rhsMax =  -9.64727736135776E-03  2.37355764362791E-01
 cg2d: Sum(rhs),rhsMax =  -9.64784637522201E-03  2.37361283921865E-01
 cg2d: Sum(rhs),rhsMax =  -9.64841532942059E-03  2.37366804080532E-01
 cg2d: Sum(rhs),rhsMax =  -9.64898422514421E-03  2.37372324834869E-01
 cg2d: Sum(rhs),rhsMax =  -9.64955306258816E-03  2.37377846180930E-01
 cg2d: Sum(rhs),rhsMax =  -9.65012184221794E-03  2.37383368114801E-01
 cg2d: Sum(rhs),rhsMax =  -9.65069056506514E-03  2.37388890632529E-01
 cg2d: Sum(rhs),rhsMax =  -9.65125923126704E-03  2.37394413730187E-01
 cg2d: Sum(rhs),rhsMax =  -9.65182784153844E-03  2.37399937403827E-01
 cg2d: Sum(rhs),rhsMax =  -9.65239639690370E-03  2.37405461649525E-01
 cg2d: Sum(rhs),rhsMax =  -9.65296489753432E-03  2.37410986463325E-01
 cg2d: Sum(rhs),rhsMax =  -9.65353334392491E-03  2.37416511841301E-01
 cg2d: Sum(rhs),rhsMax =  -9.65410173644713E-03  2.37422037779495E-01
 cg2d: Sum(rhs),rhsMax =  -9.65467007581500E-03  2.37427564273972E-01
 cg2d: Sum(rhs),rhsMax =  -9.65523836287210E-03  2.37433091320787E-01
 cg2d: Sum(rhs),rhsMax =  -9.65580659823495E-03  2.37438618915994E-01
 cg2d: Sum(rhs),rhsMax =  -9.65637478142226E-03  2.37444147055645E-01
 cg2d: Sum(rhs),rhsMax =  -9.65694291411506E-03  2.37449675735794E-01
 cg2d: Sum(rhs),rhsMax =  -9.65751099626738E-03  2.37455204952484E-01
 cg2d: Sum(rhs),rhsMax =  -9.65807902894078E-03  2.37460734701777E-01
 cg2d: Sum(rhs),rhsMax =  -9.65864701197390E-03  2.37466264979714E-01
 cg2d: Sum(rhs),rhsMax =  -9.65921494597232E-03  2.37471795782337E-01
 cg2d: Sum(rhs),rhsMax =  -9.65978283204589E-03  2.37477327105706E-01
 cg2d: Sum(rhs),rhsMax =  -9.66035066994628E-03  2.37482858945859E-01
 cg2d: Sum(rhs),rhsMax =  -9.66091846049831E-03  2.37488391298835E-01
 cg2d: Sum(rhs),rhsMax =  -9.66148620445242E-03  2.37493924160690E-01
 cg2d: Sum(rhs),rhsMax =  -9.66205390181610E-03  2.37499457527457E-01
 cg2d: Sum(rhs),rhsMax =  -9.66262155350371E-03  2.37504991395180E-01
(PID.TID 0000.0001)      cg2d_init_res =   2.84663389309096E-04
(PID.TID 0000.0001)      cg2d_iters(min,last) =      -1      67
(PID.TID 0000.0001)      cg2d_last_res =   8.56941720781146E-08
(PID.TID 0000.0001) // =======================================================
(PID.TID 0000.0001) // Begin MONITOR dynamic field statistics
(PID.TID 0000.0001) // =======================================================
(PID.TID 0000.0001) %MON time_tsnumber                =                 20808
(PID.TID 0000.0001) %MON time_secondsf                =   2.4969600000000E+07
(PID.TID 0000.0001) %MON dynstat_eta_max              =   4.0921973569089E-01
(PID.TID 0000.0001) %MON dynstat_eta_min              =  -1.2478763916524E-01
(PID.TID 0000.0001) %MON dynstat_eta_mean             =   1.1469665592684E-05
(PID.TID 0000.0001) %MON dynstat_eta_sd               =   1.5473949263176E-01
(PID.TID 0000.0001) %MON dynstat_eta_del2             =   3.9002660769652E-05
(PID.TID 0000.0001) %MON dynstat_uvel_max             =   1.8298158615461E-01
(PID.TID 0000.0001) %MON dynstat_uvel_min             =  -1.5265976606278E-01
(PID.TID 0000.0001) %MON dynstat_uvel_mean            =  -2.9264122659999E-08
(PID.TID 0000.0001) %MON dynstat_uvel_sd              =   6.2851917490478E-02
(PID.TID 0000.0001) %MON dynstat_uvel_del2            =   7.8188424986228E-05
(PID.TID 0000.0001) %MON dynstat_vvel_max             =   1.3494293728759E-01
(PID.TID 0000.0001) %MON dynstat_vvel_min             =  -1.6216857763159E-01
(PID.TID 0000.0001) %MON dynstat_vvel_mean            =   9.0676855871280E-08
(PID.TID 0000.0001) %MON dynstat_vvel_sd              =   5.8130271578978E-02
(PID.TID 0000.0001) %MON dynstat_vvel_del2            =   3.7788375092454E-05
(PID.TID 0000.0001) %MON dynstat_wvel_max             =   1.1208595789285E-08
(PID.TID 0000.0001) %MON dynstat_wvel_min             =  -3.9230292206048E-09
(PID.TID 0000.0001) %MON dynstat_wvel_mean            =  -1.7556484661125E-21
(PID.TID 0000.0001) %MON dynstat_wvel_sd              =   3.7627029362945E-09
(PID.TID 0000.0001) %MON dynstat_wvel_del2            =   1.0969227987921E-12
(PID.TID 0000.0001) %MON dynstat_theta_max            =   2.0000000000000E+01
(PID.TID 0000.0001) %MON dynstat_theta_min            =   2.0000000000000E+01
(PID.TID 0000.0001) %MON dynstat_theta_mean           =   2.0000000000000E+01
(PID.TID 0000.0001) %MON dynstat_theta_sd             =   3.8014036363165E-13
(PID.TID 0000.0001) %MON dynstat_theta_del2           =   0.0000000000000E+00
(PID.TID 0000.0001) %MON dynstat_salt_max             =   3.0000000000000E+01
(PID.TID 0000.0001) %MON dynstat_salt_min             =   3.0000000000000E+01
(PID.TID 0000.0001) %MON dynstat_salt_mean            =   2.9999999999999E+01
(PID.TID 0000.0001) %MON dynstat_salt_sd              =   5.5777604757167E-13
(PID.TID 0000.0001) %MON dynstat_salt_del2            =   0.0000000000000E+00
(PID.TID 0000.0001) %MON trAdv_CFL_u_max              =   1.0978367650056E-02
(PID.TID 0000.0001) %MON trAdv_CFL_v_max              =   9.7172161423728E-03
(PID.TID 0000.0001) %MON trAdv_CFL_w_max              =   2.9623839904051E-09
(PID.TID 0000.0001) %MON advcfl_uvel_max              =   1.0978895169277E-02
(PID.TID 0000.0001) %MON advcfl_vvel_max              =   9.7301146578951E-03
(PID.TID 0000.0001) %MON advcfl_wvel_max              =   5.3801259788568E-09
(PID.TID 0000.0001) %MON advcfl_W_hf_max              =   0.0000000000000E+00
(PID.TID 0000.0001) %MON pe_b_mean                    =   2.4548538018917E-05
(PID.TID 0000.0001) %MON ke_max                       =   1.6770851119481E-02
(PID.TID 0000.0001) %MON ke_mean                      =   3.5973563958606E-03
(PID.TID 0000.0001) %MON ke_vol                       =   6.8893493896486E+15
(PID.TID 0000.0001) %MON vort_r_min                   =  -1.2113152469373E-06
(PID.TID 0000.0001) %MON vort_r_max                   =   3.9000081297953E-06
(PID.TID 0000.0001) %MON vort_a_mean                  =   1.0600000000000E-04
(PID.TID 0000.0001) %MON vort_a_sd                    =   3.5867916109688E-06
(PID.TID 0000.0001) %MON vort_p_mean                  =   1.1652272308690E-04
(PID.TID 0000.0001) %MON vort_p_sd                    =   4.1792861798283E-05
(PID.TID 0000.0001) %MON surfExpan_theta_mean         =  -3.5092918694425E-20
(PID.TID 0000.0001) %MON surfExpan_salt_mean          =  -5.2628008124284E-20
(PID.TID 0000.0001) // =======================================================
(PID.TID 0000.0001) // End MONITOR dynamic field statistics
(PID.TID 0000.0001) // =======================================================
 cg2d: Sum(rhs),rhsMax =  -9.66318915959302E-03  2.37510525759901E-01
 cg2d: Sum(rhs),rhsMax =  -9.66375672097433E-03  2.37516060617666E-01
 cg2d: Sum(rhs),rhsMax =  -9.66432423812105E-03  2.37521595964498E-01
 cg2d: Sum(rhs),rhsMax =  -9.66489171120820E-03  2.37527131796450E-01
 cg2d: Sum(rhs),rhsMax =  -9.66545914105624E-03  2.37532668109553E-01
 cg2d: Sum(rhs),rhsMax =  -9.66602652759877E-03  2.37538204899841E-01
 cg2d: Sum(rhs),rhsMax =  -9.66659387177032E-03  2.37543742163353E-01
 cg2d: Sum(rhs),rhsMax =  -9.66716117408456E-03  2.37549279896121E-01
 cg2d: Sum(rhs),rhsMax =  -9.66772843504761E-03  2.37554818094178E-01
 cg2d: Sum(rhs),rhsMax =  -9.66829565390050E-03  2.37560356753563E-01
 cg2d: Sum(rhs),rhsMax =  -9.66886283281261E-03  2.37565895870303E-01
 cg2d: Sum(rhs),rhsMax =  -9.66942997124121E-03  2.37571435440428E-01
 cg2d: Sum(rhs),rhsMax =  -9.66999706996134E-03  2.37576975459971E-01
 cg2d: Sum(rhs),rhsMax =  -9.67056412927435E-03  2.37582515924958E-01
 cg2d: Sum(rhs),rhsMax =  -9.67113114972883E-03  2.37588056831425E-01
 cg2d: Sum(rhs),rhsMax =  -9.67169813176359E-03  2.37593598175394E-01
 cg2d: Sum(rhs),rhsMax =  -9.67226507589504E-03  2.37599139952893E-01
 cg2d: Sum(rhs),rhsMax =  -9.67283198223240E-03  2.37604682159946E-01
 cg2d: Sum(rhs),rhsMax =  -9.67339885135321E-03  2.37610224792590E-01
 cg2d: Sum(rhs),rhsMax =  -9.67396568367009E-03  2.37615767846841E-01
 cg2d: Sum(rhs),rhsMax =  -9.67453248010237E-03  2.37621311318726E-01
 cg2d: Sum(rhs),rhsMax =  -9.67509923995712E-03  2.37626855204268E-01
 cg2d: Sum(rhs),rhsMax =  -9.67566596464339E-03  2.37632399499494E-01
 cg2d: Sum(rhs),rhsMax =  -9.67623265415658E-03  2.37637944200421E-01
 cg2d: Sum(rhs),rhsMax =  -9.67679930848355E-03  2.37643489303072E-01
 cg2d: Sum(rhs),rhsMax =  -9.67736592923095E-03  2.37649034803477E-01
 cg2d: Sum(rhs),rhsMax =  -9.67793251557217E-03  2.37654580697644E-01
 cg2d: Sum(rhs),rhsMax =  -9.67849906839261E-03  2.37660126981598E-01
 cg2d: Sum(rhs),rhsMax =  -9.67906558793832E-03  2.37665673651369E-01
 cg2d: Sum(rhs),rhsMax =  -9.67963207504643E-03  2.37671220702964E-01
 cg2d: Sum(rhs),rhsMax =  -9.68019852957867E-03  2.37676768132404E-01
 cg2d: Sum(rhs),rhsMax =  -9.68076495222066E-03  2.37682315935707E-01
 cg2d: Sum(rhs),rhsMax =  -9.68133134272761E-03  2.37687864108892E-01
 cg2d: Sum(rhs),rhsMax =  -9.68189770251600E-03  2.37693412647978E-01
 cg2d: Sum(rhs),rhsMax =  -9.68246403088131E-03  2.37698961548982E-01
 cg2d: Sum(rhs),rhsMax =  -9.68303032914717E-03  2.37704510807917E-01
 cg2d: Sum(rhs),rhsMax =  -9.68359659709813E-03  2.37710060420797E-01
 cg2d: Sum(rhs),rhsMax =  -9.68416283547884E-03  2.37715610383643E-01
 cg2d: Sum(rhs),rhsMax =  -9.68472904432353E-03  2.37721160692463E-01
 cg2d: Sum(rhs),rhsMax =  -9.68529522385715E-03  2.37726711343275E-01
 cg2d: Sum(rhs),rhsMax =  -9.68586137473596E-03  2.37732262332102E-01
 cg2d: Sum(rhs),rhsMax =  -9.68642749710961E-03  2.37737813654937E-01
 cg2d: Sum(rhs),rhsMax =  -9.68699359153958E-03  2.37743365307810E-01
 cg2d: Sum(rhs),rhsMax =  -9.68755965833163E-03  2.37748917286733E-01
 cg2d: Sum(rhs),rhsMax =  -9.68812569744498E-03  2.37754469587711E-01
 cg2d: Sum(rhs),rhsMax =  -9.68869171011143E-03  2.37760022206765E-01
 cg2d: Sum(rhs),rhsMax =  -9.68925769571049E-03  2.37765575139898E-01
 cg2d: Sum(rhs),rhsMax =  -9.68982365495332E-03  2.37771128383123E-01
 cg2d: Sum(rhs),rhsMax =  -9.69038958789483E-03  2.37776681932459E-01
 cg2d: Sum(rhs),rhsMax =  -9.69095549540636E-03  2.37782235783912E-01
 cg2d: Sum(rhs),rhsMax =  -9.69152137774256E-03  2.37787789933490E-01
 cg2d: Sum(rhs),rhsMax =  -9.69208723485806E-03  2.37793344377209E-01
 cg2d: Sum(rhs),rhsMax =  -9.69265306694622E-03  2.37798899111073E-01
 cg2d: Sum(rhs),rhsMax =  -9.69321887465988E-03  2.37804454131099E-01
 cg2d: Sum(rhs),rhsMax =  -9.69378465799297E-03  2.37810009433296E-01
 cg2d: Sum(rhs),rhsMax =  -9.69435041812328E-03  2.37815565013667E-01
 cg2d: Sum(rhs),rhsMax =  -9.69491615453285E-03  2.37821120868227E-01
 cg2d: Sum(rhs),rhsMax =  -9.69548186775168E-03  2.37826676992988E-01
 cg2d: Sum(rhs),rhsMax =  -9.69615648241230E-03  2.37832233395742E-01
 cg2d: Sum(rhs),rhsMax =  -9.69683131225146E-03  2.37837790076694E-01
 cg2d: Sum(rhs),rhsMax =  -9.69750596202823E-03  2.37843346990095E-01
 cg2d: Sum(rhs),rhsMax =  -9.69818052614249E-03  2.37848904154201E-01
 cg2d: Sum(rhs),rhsMax =  -9.69885503778159E-03  2.37854461567231E-01
 cg2d: Sum(rhs),rhsMax =  -9.69952950147429E-03  2.37860019224771E-01
 cg2d: Sum(rhs),rhsMax =  -9.70020391308398E-03  2.37865577125326E-01
 cg2d: Sum(rhs),rhsMax =  -9.70087826908659E-03  2.37871135265839E-01
 cg2d: Sum(rhs),rhsMax =  -9.70155256773068E-03  2.37876693641639E-01
 cg2d: Sum(rhs),rhsMax =  -9.70222680863799E-03  2.37882252247807E-01
 cg2d: Sum(rhs),rhsMax =  -9.70290099297307E-03  2.37887811079888E-01
 cg2d: Sum(rhs),rhsMax =  -9.70357512101510E-03  2.37893370133880E-01
 cg2d: Sum(rhs),rhsMax =  -9.70424919461559E-03  2.37898929405998E-01
 cg2d: Sum(rhs),rhsMax =  -9.70492321280414E-03  2.37904488892446E-01
(PID.TID 0000.0001)      cg2d_init_res =   2.83826913349139E-04
(PID.TID 0000.0001)      cg2d_iters(min,last) =      -1      66
(PID.TID 0000.0001)      cg2d_last_res =   9.97329229683572E-08
(PID.TID 0000.0001) // =======================================================
(PID.TID 0000.0001) // Begin MONITOR dynamic field statistics
(PID.TID 0000.0001) // =======================================================
(PID.TID 0000.0001) %MON time_tsnumber                =                 20880
(PID.TID 0000.0001) %MON time_secondsf                =   2.5056000000000E+07
(PID.TID 0000.0001) %MON dynstat_eta_max              =   4.1018701563752E-01
(PID.TID 0000.0001) %MON dynstat_eta_min              =  -1.2497989677907E-01
(PID.TID 0000.0001) %MON dynstat_eta_mean             =   1.1539379642217E-05
(PID.TID 0000.0001) %MON dynstat_eta_sd               =   1.5505533533741E-01
(PID.TID 0000.0001) %MON dynstat_eta_del2             =   3.9075238606368E-05
(PID.TID 0000.0001) %MON dynstat_uvel_max             =   1.8326984096335E-01
(PID.TID 0000.0001) %MON dynstat_uvel_min             =  -1.5304756802623E-01
(PID.TID 0000.0001) %MON dynstat_uvel_mean            =  -2.6565681401930E-08
(PID.TID 0000.0001) %MON dynstat_uvel_sd              =   6.2978859704361E-02
(PID.TID 0000.0001) %MON dynstat_uvel_del2            =   7.8269583734233E-05
(PID.TID 0000.0001) %MON dynstat_vvel_max             =   1.3528954881979E-01
(PID.TID 0000.0001) %MON dynstat_vvel_min             =  -1.6244053881099E-01
(PID.TID 0000.0001) %MON dynstat_vvel_mean            =   9.2421394125517E-08
(PID.TID 0000.0001) %MON dynstat_vvel_sd              =   5.8252998472507E-02
(PID.TID 0000.0001) %MON dynstat_vvel_del2            =   3.7784511727686E-05
(PID.TID 0000.0001) %MON dynstat_wvel_max             =   1.1195026107453E-08
(PID.TID 0000.0001) %MON dynstat_wvel_min             =  -3.9963475872355E-09
(PID.TID 0000.0001) %MON dynstat_wvel_mean            =   5.4816857502576E-21
(PID.TID 0000.0001) %MON dynstat_wvel_sd              =   3.7499950306483E-09
(PID.TID 0000.0001) %MON dynstat_wvel_del2            =   1.1040175165234E-12
(PID.TID 0000.0001) %MON dynstat_theta_max            =   2.0000000000000E+01
(PID.TID 0000.0001) %MON dynstat_theta_min            =   2.0000000000000E+01
(PID.TID 0000.0001) %MON dynstat_theta_mean           =   2.0000000000000E+01
(PID.TID 0000.0001) %MON dynstat_theta_sd             =   3.8014036363165E-13
(PID.TID 0000.0001) %MON dynstat_theta_del2           =   0.0000000000000E+00
(PID.TID 0000.0001) %MON dynstat_salt_max             =   3.0000000000000E+01
(PID.TID 0000.0001) %MON dynstat_salt_min             =   3.0000000000000E+01
(PID.TID 0000.0001) %MON dynstat_salt_mean            =   2.9999999999999E+01
(PID.TID 0000.0001) %MON dynstat_salt_sd              =   5.5777604757167E-13
(PID.TID 0000.0001) %MON dynstat_salt_del2            =   0.0000000000000E+00
(PID.TID 0000.0001) %MON trAdv_CFL_u_max              =   1.0995657374232E-02
(PID.TID 0000.0001) %MON trAdv_CFL_v_max              =   9.7335163401505E-03
(PID.TID 0000.0001) %MON trAdv_CFL_w_max              =   2.9534195429193E-09
(PID.TID 0000.0001) %MON advcfl_uvel_max              =   1.0996190457801E-02
(PID.TID 0000.0001) %MON advcfl_vvel_max              =   9.7464323286592E-03
(PID.TID 0000.0001) %MON advcfl_wvel_max              =   5.3736125315772E-09
(PID.TID 0000.0001) %MON advcfl_W_hf_max              =   0.0000000000000E+00
(PID.TID 0000.0001) %MON pe_b_mean                    =   2.4648853581919E-05
(PID.TID 0000.0001) %MON ke_max                       =   1.6824081072192E-02
(PID.TID 0000.0001) %MON ke_mean                      =   3.6122065047218E-03
(PID.TID 0000.0001) %MON ke_vol                       =   6.8893493896486E+15
(PID.TID 0000.0001) %MON vort_r_min                   =  -1.2151732876171E-06
(PID.TID 0000.0001) %MON vort_r_max                   =   3.9059569525903E-06
(PID.TID 0000.0001) %MON vort_a_mean                  =   1.0600000000000E-04
(PID.TID 0000.0001) %MON vort_a_sd                    =   3.5870256258369E-06
(PID.TID 0000.0001) %MON vort_p_mean                  =   1.1652272308690E-04
(PID.TID 0000.0001) %MON vort_p_sd                    =   4.1792877366655E-05
(PID.TID 0000.0001) %MON surfExpan_theta_mean         =   1.0962080132515E-19
(PID.TID 0000.0001) %MON surfExpan_salt_mean          =   1.6442740995931E-19
(PID.TID 0000.0001) // =======================================================
(PID.TID 0000.0001) // End MONITOR dynamic field statistics
(PID.TID 0000.0001) // =======================================================
 cg2d: Sum(rhs),rhsMax =  -9.70559717599477E-03  2.37910048589339E-01
 cg2d: Sum(rhs),rhsMax =  -9.70627108419527E-03  2.37915608492687E-01
 cg2d: Sum(rhs),rhsMax =  -9.70694493745186E-03  2.37921168598435E-01
 cg2d: Sum(rhs),rhsMax =  -9.70761873554373E-03  2.37926728902536E-01
 cg2d: Sum(rhs),rhsMax =  -9.70829247904445E-03  2.37932289400958E-01
 cg2d: Sum(rhs),rhsMax =  -9.70896616771608E-03  2.37937850089705E-01
 cg2d: Sum(rhs),rhsMax =  -9.70963980219422E-03  2.37943410964799E-01
 cg2d: Sum(rhs),rhsMax =  -9.71031338187588E-03  2.37948972022286E-01
 cg2d: Sum(rhs),rhsMax =  -9.71098690775608E-03  2.37954533258168E-01
 cg2d: Sum(rhs),rhsMax =  -9.71166037912438E-03  2.37960094668482E-01
 cg2d: Sum(rhs),rhsMax =  -9.71233379706721E-03  2.37965656249221E-01
 cg2d: Sum(rhs),rhsMax =  -9.71300716051499E-03  2.37971217996397E-01
 cg2d: Sum(rhs),rhsMax =  -9.71368047053192E-03  2.37976779906014E-01
 cg2d: Sum(rhs),rhsMax =  -9.71435372612275E-03  2.37982341974076E-01
 cg2d: Sum(rhs),rhsMax =  -9.71502692886657E-03  2.37987904196588E-01
 cg2d: Sum(rhs),rhsMax =  -9.71570007752491E-03  2.37993466569570E-01
 cg2d: Sum(rhs),rhsMax =  -9.71637317304856E-03  2.37999029089025E-01
 cg2d: Sum(rhs),rhsMax =  -9.71704621526592E-03  2.38004591750972E-01
 cg2d: Sum(rhs),rhsMax =  -9.71771920416450E-03  2.38010154551419E-01
 cg2d: Sum(rhs),rhsMax =  -9.71839214022452E-03  2.38015717486375E-01
 cg2d: Sum(rhs),rhsMax =  -9.71906502291913E-03  2.38021280551862E-01
 cg2d: Sum(rhs),rhsMax =  -9.71973785258243E-03  2.38026843743888E-01
 cg2d: Sum(rhs),rhsMax =  -9.72041062984677E-03  2.38032407058465E-01
 cg2d: Sum(rhs),rhsMax =  -9.72108335405397E-03  2.38037970491612E-01
 cg2d: Sum(rhs),rhsMax =  -9.72175602577776E-03  2.38043534039330E-01
 cg2d: Sum(rhs),rhsMax =  -9.72242864459394E-03  2.38049097697640E-01
 cg2d: Sum(rhs),rhsMax =  -9.72310121121397E-03  2.38054661462557E-01
 cg2d: Sum(rhs),rhsMax =  -9.72377372540401E-03  2.38060225330095E-01
 cg2d: Sum(rhs),rhsMax =  -9.72444618715985E-03  2.38065789296265E-01
 cg2d: Sum(rhs),rhsMax =  -9.72511859634726E-03  2.38071353357087E-01
 cg2d: Sum(rhs),rhsMax =  -9.72579095373324E-03  2.38076917508577E-01
 cg2d: Sum(rhs),rhsMax =  -9.72646325877694E-03  2.38082481746747E-01
 cg2d: Sum(rhs),rhsMax =  -9.72713551198082E-03  2.38088046067618E-01
 cg2d: Sum(rhs),rhsMax =  -9.72780771283816E-03  2.38093610467207E-01
 cg2d: Sum(rhs),rhsMax =  -9.72847986218478E-03  2.38099174941529E-01
 cg2d: Sum(rhs),rhsMax =  -9.72915195972717E-03  2.38104739486603E-01
 cg2d: Sum(rhs),rhsMax =  -9.72982400465127E-03  2.38110304098454E-01
 cg2d: Sum(rhs),rhsMax =  -9.73049599877835E-03  2.38115868773094E-01
 cg2d: Sum(rhs),rhsMax =  -9.73116794110192E-03  2.38121433506545E-01
 cg2d: Sum(rhs),rhsMax =  -9.73183983168040E-03  2.38126998294830E-01
 cg2d: Sum(rhs),rhsMax =  -9.73251167104957E-03  2.38132563133972E-01
 cg2d: Sum(rhs),rhsMax =  -9.73318345859894E-03  2.38138128019979E-01
 cg2d: Sum(rhs),rhsMax =  -9.73385519516798E-03  2.38143692948893E-01
 cg2d: Sum(rhs),rhsMax =  -9.73452688015332E-03  2.38149257916721E-01
 cg2d: Sum(rhs),rhsMax =  -9.73519851424876E-03  2.38154822919498E-01
 cg2d: Sum(rhs),rhsMax =  -9.73587009636964E-03  2.38160387953240E-01
 cg2d: Sum(rhs),rhsMax =  -9.73654162793030E-03  2.38165953013975E-01
 cg2d: Sum(rhs),rhsMax =  -9.73721310838485E-03  2.38171518097728E-01
 cg2d: Sum(rhs),rhsMax =  -9.73788453772218E-03  2.38177083200527E-01
 cg2d: Sum(rhs),rhsMax =  -9.73855591616206E-03  2.38182648318403E-01
 cg2d: Sum(rhs),rhsMax =  -9.73922724363504E-03  2.38188213447375E-01
 cg2d: Sum(rhs),rhsMax =  -9.73989851977938E-03  2.38193778583476E-01
 cg2d: Sum(rhs),rhsMax =  -9.74056974545669E-03  2.38199343722734E-01
 cg2d: Sum(rhs),rhsMax =  -9.74124092058989E-03  2.38204908861177E-01
 cg2d: Sum(rhs),rhsMax =  -9.74191204481024E-03  2.38210473994839E-01
 cg2d: Sum(rhs),rhsMax =  -9.74258311773646E-03  2.38216039119752E-01
 cg2d: Sum(rhs),rhsMax =  -9.74325414111239E-03  2.38221604231950E-01
 cg2d: Sum(rhs),rhsMax =  -9.74392511289768E-03  2.38227169327457E-01
 cg2d: Sum(rhs),rhsMax =  -9.74459603449815E-03  2.38232734402317E-01
 cg2d: Sum(rhs),rhsMax =  -9.74526690544765E-03  2.38238299452558E-01
 cg2d: Sum(rhs),rhsMax =  -9.74593772627498E-03  2.38243864474222E-01
 cg2d: Sum(rhs),rhsMax =  -9.74660849647788E-03  2.38249429463339E-01
 cg2d: Sum(rhs),rhsMax =  -9.74727921626502E-03  2.38254994415951E-01
 cg2d: Sum(rhs),rhsMax =  -9.74794988585478E-03  2.38260559328094E-01
 cg2d: Sum(rhs),rhsMax =  -9.74862050472987E-03  2.38266124195810E-01
 cg2d: Sum(rhs),rhsMax =  -9.74929107336780E-03  2.38271689015134E-01
 cg2d: Sum(rhs),rhsMax =  -9.74996159204730E-03  2.38277253782109E-01
 cg2d: Sum(rhs),rhsMax =  -9.75063205982203E-03  2.38282818492778E-01
 cg2d: Sum(rhs),rhsMax =  -9.75130247823316E-03  2.38288383143185E-01
 cg2d: Sum(rhs),rhsMax =  -9.75197284633671E-03  2.38293947729373E-01
 cg2d: Sum(rhs),rhsMax =  -9.75264316405294E-03  2.38299512247389E-01
 cg2d: Sum(rhs),rhsMax =  -9.75331343216518E-03  2.38305076693272E-01
(PID.TID 0000.0001)      cg2d_init_res =   2.82897166412680E-04
(PID.TID 0000.0001)      cg2d_iters(min,last) =      -1      66
(PID.TID 0000.0001)      cg2d_last_res =   9.83137746624419E-08
(PID.TID 0000.0001) // =======================================================
(PID.TID 0000.0001) // Begin MONITOR dynamic field statistics
(PID.TID 0000.0001) // =======================================================
(PID.TID 0000.0001) %MON time_tsnumber                =                 20952
(PID.TID 0000.0001) %MON time_secondsf                =   2.5142400000000E+07
(PID.TID 0000.0001) %MON dynstat_eta_max              =   4.1115210823847E-01
(PID.TID 0000.0001) %MON dynstat_eta_min              =  -1.2516667353676E-01
(PID.TID 0000.0001) %MON dynstat_eta_mean             =   1.1616435142556E-05
(PID.TID 0000.0001) %MON dynstat_eta_sd               =   1.5536991681204E-01
(PID.TID 0000.0001) %MON dynstat_eta_del2             =   3.9147884347775E-05
(PID.TID 0000.0001) %MON dynstat_uvel_max             =   1.8356385432155E-01
(PID.TID 0000.0001) %MON dynstat_uvel_min             =  -1.5343540978212E-01
(PID.TID 0000.0001) %MON dynstat_uvel_mean            =  -2.3362776180135E-08
(PID.TID 0000.0001) %MON dynstat_uvel_sd              =   6.3106000752792E-02
(PID.TID 0000.0001) %MON dynstat_uvel_del2            =   7.8352548827163E-05
(PID.TID 0000.0001) %MON dynstat_vvel_max             =   1.3563560101126E-01
(PID.TID 0000.0001) %MON dynstat_vvel_min             =  -1.6270837629121E-01
(PID.TID 0000.0001) %MON dynstat_vvel_mean            =   9.3966379749968E-08
(PID.TID 0000.0001) %MON dynstat_vvel_sd              =   5.8374466347457E-02
(PID.TID 0000.0001) %MON dynstat_vvel_del2            =   3.7777980211687E-05
(PID.TID 0000.0001) %MON dynstat_wvel_max             =   1.1177212601760E-08
(PID.TID 0000.0001) %MON dynstat_wvel_min             =  -4.0581429863232E-09
(PID.TID 0000.0001) %MON dynstat_wvel_mean            =   8.8676288593585E-21
(PID.TID 0000.0001) %MON dynstat_wvel_sd              =   3.7377972443910E-09
(PID.TID 0000.0001) %MON dynstat_wvel_del2            =   1.1010214759372E-12
(PID.TID 0000.0001) %MON dynstat_theta_max            =   2.0000000000000E+01
(PID.TID 0000.0001) %MON dynstat_theta_min            =   2.0000000000000E+01
(PID.TID 0000.0001) %MON dynstat_theta_mean           =   2.0000000000000E+01
(PID.TID 0000.0001) %MON dynstat_theta_sd             =   3.8014036363165E-13
(PID.TID 0000.0001) %MON dynstat_theta_del2           =   0.0000000000000E+00
(PID.TID 0000.0001) %MON dynstat_salt_max             =   3.0000000000000E+01
(PID.TID 0000.0001) %MON dynstat_salt_min             =   3.0000000000000E+01
(PID.TID 0000.0001) %MON dynstat_salt_mean            =   2.9999999999999E+01
(PID.TID 0000.0001) %MON dynstat_salt_sd              =   5.5777604757167E-13
(PID.TID 0000.0001) %MON dynstat_salt_del2            =   0.0000000000000E+00
(PID.TID 0000.0001) %MON trAdv_CFL_u_max              =   1.1013293224908E-02
(PID.TID 0000.0001) %MON trAdv_CFL_v_max              =   9.7495687547658E-03
(PID.TID 0000.0001) %MON trAdv_CFL_w_max              =   2.9471901888764E-09
(PID.TID 0000.0001) %MON advcfl_uvel_max              =   1.1013831259293E-02
(PID.TID 0000.0001) %MON advcfl_vvel_max              =   9.7625025774724E-03
(PID.TID 0000.0001) %MON advcfl_wvel_max              =   5.3650620488450E-09
(PID.TID 0000.0001) %MON advcfl_W_hf_max              =   0.0000000000000E+00
(PID.TID 0000.0001) %MON pe_b_mean                    =   2.4748971886799E-05
(PID.TID 0000.0001) %MON ke_max                       =   1.6878379490315E-02
(PID.TID 0000.0001) %MON ke_mean                      =   3.6270273895586E-03
(PID.TID 0000.0001) %MON ke_vol                       =   6.8893493896486E+15
(PID.TID 0000.0001) %MON vort_r_min                   =  -1.2190139336137E-06
(PID.TID 0000.0001) %MON vort_r_max                   =   3.9120370596653E-06
(PID.TID 0000.0001) %MON vort_a_mean                  =   1.0600000000000E-04
(PID.TID 0000.0001) %MON vort_a_sd                    =   3.5872596656889E-06
(PID.TID 0000.0001) %MON vort_p_mean                  =   1.1652272308690E-04
(PID.TID 0000.0001) %MON vort_p_sd                    =   4.1792894038714E-05
(PID.TID 0000.0001) %MON surfExpan_theta_mean         =   1.7736646595878E-19
(PID.TID 0000.0001) %MON surfExpan_salt_mean          =   2.6604006651986E-19
(PID.TID 0000.0001) // =======================================================
(PID.TID 0000.0001) // End MONITOR dynamic field statistics
(PID.TID 0000.0001) // =======================================================
 cg2d: Sum(rhs),rhsMax =  -9.75398365012832E-03  2.38310641063074E-01
 cg2d: Sum(rhs),rhsMax =  -9.75465381776131E-03  2.38316205352850E-01
 cg2d: Sum(rhs),rhsMax =  -9.75532393578330E-03  2.38321769558634E-01
 cg2d: Sum(rhs),rhsMax =  -9.75599400365420E-03  2.38327333676485E-01
 cg2d: Sum(rhs),rhsMax =  -9.75666402187480E-03  2.38332897702455E-01
 cg2d: Sum(rhs),rhsMax =  -9.75733398992562E-03  2.38338461632593E-01
 cg2d: Sum(rhs),rhsMax =  -9.75800390793373E-03  2.38344025462954E-01
 cg2d: Sum(rhs),rhsMax =  -9.75867377646416E-03  2.38349589189589E-01
 cg2d: Sum(rhs),rhsMax =  -9.75934359422308E-03  2.38355152808557E-01
 cg2d: Sum(rhs),rhsMax =  -9.76001336337253E-03  2.38360716315914E-01
 cg2d: Sum(rhs),rhsMax =  -9.76068308223541E-03  2.38366279707721E-01
 cg2d: Sum(rhs),rhsMax =  -9.76135275149229E-03  2.38371842980027E-01
 cg2d: Sum(rhs),rhsMax =  -9.76202237160155E-03  2.38377406128903E-01
 cg2d: Sum(rhs),rhsMax =  -9.76269194143074E-03  2.38382969150403E-01
 cg2d: Sum(rhs),rhsMax =  -9.76336146165916E-03  2.38388532040598E-01
 cg2d: Sum(rhs),rhsMax =  -9.76403093262346E-03  2.38394094795545E-01
 cg2d: Sum(rhs),rhsMax =  -9.76470035367737E-03  2.38399657411308E-01
 cg2d: Sum(rhs),rhsMax =  -9.76536972518548E-03  2.38405219883956E-01
 cg2d: Sum(rhs),rhsMax =  -9.76603904733190E-03  2.38410782209559E-01
 cg2d: Sum(rhs),rhsMax =  -9.76670832009674E-03  2.38416344384180E-01
 cg2d: Sum(rhs),rhsMax =  -9.76737754282176E-03  2.38421906403893E-01
 cg2d: Sum(rhs),rhsMax =  -9.76804671633210E-03  2.38427468264770E-01
 cg2d: Sum(rhs),rhsMax =  -9.76871584023551E-03  2.38433029962879E-01
 cg2d: Sum(rhs),rhsMax =  -9.76938491489565E-03  2.38438591494300E-01
 cg2d: Sum(rhs),rhsMax =  -9.77005394014774E-03  2.38444152855104E-01
 cg2d: Sum(rhs),rhsMax =  -9.77072291544758E-03  2.38449714041368E-01
 cg2d: Sum(rhs),rhsMax =  -9.77139184235131E-03  2.38455275049173E-01
 cg2d: Sum(rhs),rhsMax =  -9.77206071887220E-03  2.38460835874598E-01
 cg2d: Sum(rhs),rhsMax =  -9.77272954668930E-03  2.38466396513715E-01
 cg2d: Sum(rhs),rhsMax =  -9.77339832519595E-03  2.38471956962622E-01
 cg2d: Sum(rhs),rhsMax =  -9.77406705403258E-03  2.38477517217389E-01
 cg2d: Sum(rhs),rhsMax =  -9.77473573422505E-03  2.38483077274107E-01
 cg2d: Sum(rhs),rhsMax =  -9.77540436458273E-03  2.38488637128865E-01
 cg2d: Sum(rhs),rhsMax =  -9.77607294624595E-03  2.38494196777745E-01
 cg2d: Sum(rhs),rhsMax =  -9.77674147788617E-03  2.38499756216839E-01
 cg2d: Sum(rhs),rhsMax =  -9.77740996075788E-03  2.38505315442232E-01
 cg2d: Sum(rhs),rhsMax =  -9.77807839406780E-03  2.38510874450028E-01
 cg2d: Sum(rhs),rhsMax =  -9.77874677841610E-03  2.38516433236318E-01
 cg2d: Sum(rhs),rhsMax =  -9.77941511359849E-03  2.38521991797191E-01
 cg2d: Sum(rhs),rhsMax =  -9.78008339971405E-03  2.38527550128747E-01
 cg2d: Sum(rhs),rhsMax =  -9.78075163652314E-03  2.38533108227088E-01
 cg2d: Sum(rhs),rhsMax =  -9.78141982444573E-03  2.38538666088309E-01
 cg2d: Sum(rhs),rhsMax =  -9.78208796318237E-03  2.38544223708512E-01
 cg2d: Sum(rhs),rhsMax =  -9.78275605311935E-03  2.38549781083802E-01
 cg2d: Sum(rhs),rhsMax =  -9.78342409363670E-03  2.38555338210287E-01
 cg2d: Sum(rhs),rhsMax =  -9.78409208567175E-03  2.38560895084070E-01
 cg2d: Sum(rhs),rhsMax =  -9.78476002839526E-03  2.38566451701257E-01
 cg2d: Sum(rhs),rhsMax =  -9.78542792206423E-03  2.38572008057961E-01
 cg2d: Sum(rhs),rhsMax =  -9.78609576679924E-03  2.38577564150293E-01
 cg2d: Sum(rhs),rhsMax =  -9.78676356236734E-03  2.38583119974365E-01
 cg2d: Sum(rhs),rhsMax =  -9.78743130882891E-03  2.38588675526291E-01
 cg2d: Sum(rhs),rhsMax =  -9.78809900687064E-03  2.38594230802190E-01
 cg2d: Sum(rhs),rhsMax =  -9.78876665585368E-03  2.38599785798179E-01
 cg2d: Sum(rhs),rhsMax =  -9.78943425582765E-03  2.38605340510379E-01
 cg2d: Sum(rhs),rhsMax =  -9.79010180706250E-03  2.38610894934908E-01
 cg2d: Sum(rhs),rhsMax =  -9.79076930963269E-03  2.38616449067892E-01
 cg2d: Sum(rhs),rhsMax =  -9.79143676280202E-03  2.38622002905453E-01
 cg2d: Sum(rhs),rhsMax =  -9.79210416746510E-03  2.38627556443721E-01
 cg2d: Sum(rhs),rhsMax =  -9.79277152361407E-03  2.38633109678828E-01
 cg2d: Sum(rhs),rhsMax =  -9.79343883046194E-03  2.38638662606897E-01
 cg2d: Sum(rhs),rhsMax =  -9.79410608901037E-03  2.38644215224066E-01
 cg2d: Sum(rhs),rhsMax =  -9.79477329843766E-03  2.38649767526466E-01
 cg2d: Sum(rhs),rhsMax =  -9.79544045973267E-03  2.38655319510233E-01
 cg2d: Sum(rhs),rhsMax =  -9.79610757200643E-03  2.38660871171505E-01
 cg2d: Sum(rhs),rhsMax =  -9.79677463559257E-03  2.38666422506423E-01
 cg2d: Sum(rhs),rhsMax =  -9.79744165051536E-03  2.38671973511127E-01
 cg2d: Sum(rhs),rhsMax =  -9.79810861701779E-03  2.38677524181765E-01
 cg2d: Sum(rhs),rhsMax =  -9.79877553430314E-03  2.38683074514471E-01
 cg2d: Sum(rhs),rhsMax =  -9.79944240363229E-03  2.38688624505405E-01
 cg2d: Sum(rhs),rhsMax =  -9.80010922373674E-03  2.38694174150710E-01
 cg2d: Sum(rhs),rhsMax =  -9.80077599553921E-03  2.38699723446542E-01
 cg2d: Sum(rhs),rhsMax =  -9.80144271907072E-03  2.38705272389040E-01
(PID.TID 0000.0001)      cg2d_init_res =   2.81874133351427E-04
(PID.TID 0000.0001)      cg2d_iters(min,last) =      -1      66
(PID.TID 0000.0001)      cg2d_last_res =   9.68866008070142E-08
(PID.TID 0000.0001) // =======================================================
(PID.TID 0000.0001) // Begin MONITOR dynamic field statistics
(PID.TID 0000.0001) // =======================================================
(PID.TID 0000.0001) %MON time_tsnumber                =                 21024
(PID.TID 0000.0001) %MON time_secondsf                =   2.5228800000000E+07
(PID.TID 0000.0001) %MON dynstat_eta_max              =   4.1211511250994E-01
(PID.TID 0000.0001) %MON dynstat_eta_min              =  -1.2534816327707E-01
(PID.TID 0000.0001) %MON dynstat_eta_mean             =   1.1693353130369E-05
(PID.TID 0000.0001) %MON dynstat_eta_sd               =   1.5568326331763E-01
(PID.TID 0000.0001) %MON dynstat_eta_del2             =   3.9220580048930E-05
(PID.TID 0000.0001) %MON dynstat_uvel_max             =   1.8386283177191E-01
(PID.TID 0000.0001) %MON dynstat_uvel_min             =  -1.5382176357118E-01
(PID.TID 0000.0001) %MON dynstat_uvel_mean            =  -1.9757586367970E-08
(PID.TID 0000.0001) %MON dynstat_uvel_sd              =   6.3233246711948E-02
(PID.TID 0000.0001) %MON dynstat_uvel_del2            =   7.8437010803305E-05
(PID.TID 0000.0001) %MON dynstat_vvel_max             =   1.3598051816783E-01
(PID.TID 0000.0001) %MON dynstat_vvel_min             =  -1.6297293085682E-01
(PID.TID 0000.0001) %MON dynstat_vvel_mean            =   9.5244708949289E-08
(PID.TID 0000.0001) %MON dynstat_vvel_sd              =   5.8494770652062E-02
(PID.TID 0000.0001) %MON dynstat_vvel_del2            =   3.7768927899064E-05
(PID.TID 0000.0001) %MON dynstat_wvel_max             =   1.1159495264437E-08
(PID.TID 0000.0001) %MON dynstat_wvel_min             =  -4.1119857061130E-09
(PID.TID 0000.0001) %MON dynstat_wvel_mean            =  -1.3980443453774E-20
(PID.TID 0000.0001) %MON dynstat_wvel_sd              =   3.7261636812051E-09
(PID.TID 0000.0001) %MON dynstat_wvel_del2            =   1.0980360073422E-12
(PID.TID 0000.0001) %MON dynstat_theta_max            =   2.0000000000000E+01
(PID.TID 0000.0001) %MON dynstat_theta_min            =   2.0000000000000E+01
(PID.TID 0000.0001) %MON dynstat_theta_mean           =   2.0000000000000E+01
(PID.TID 0000.0001) %MON dynstat_theta_sd             =   3.8014036363165E-13
(PID.TID 0000.0001) %MON dynstat_theta_del2           =   0.0000000000000E+00
(PID.TID 0000.0001) %MON dynstat_salt_max             =   3.0000000000000E+01
(PID.TID 0000.0001) %MON dynstat_salt_min             =   3.0000000000000E+01
(PID.TID 0000.0001) %MON dynstat_salt_mean            =   2.9999999999999E+01
(PID.TID 0000.0001) %MON dynstat_salt_sd              =   5.5777604757167E-13
(PID.TID 0000.0001) %MON dynstat_salt_del2            =   0.0000000000000E+00
(PID.TID 0000.0001) %MON trAdv_CFL_u_max              =   1.1031227611742E-02
(PID.TID 0000.0001) %MON trAdv_CFL_v_max              =   9.7654237379052E-03
(PID.TID 0000.0001) %MON trAdv_CFL_w_max              =   2.9425187807609E-09
(PID.TID 0000.0001) %MON advcfl_uvel_max              =   1.1031769906315E-02
(PID.TID 0000.0001) %MON advcfl_vvel_max              =   9.7783758514091E-03
(PID.TID 0000.0001) %MON advcfl_wvel_max              =   5.3565577269299E-09
(PID.TID 0000.0001) %MON advcfl_W_hf_max              =   0.0000000000000E+00
(PID.TID 0000.0001) %MON pe_b_mean                    =   2.4848898876191E-05
(PID.TID 0000.0001) %MON ke_max                       =   1.6933595581161E-02
(PID.TID 0000.0001) %MON ke_mean                      =   3.6418183251116E-03
(PID.TID 0000.0001) %MON ke_vol                       =   6.8893493896486E+15
(PID.TID 0000.0001) %MON vort_r_min                   =  -1.2228366910999E-06
(PID.TID 0000.0001) %MON vort_r_max                   =   3.9182309093765E-06
(PID.TID 0000.0001) %MON vort_a_mean                  =   1.0600000000000E-04
(PID.TID 0000.0001) %MON vort_a_sd                    =   3.5874934775679E-06
(PID.TID 0000.0001) %MON vort_p_mean                  =   1.1652272308690E-04
(PID.TID 0000.0001) %MON vort_p_sd                    =   4.1792911551156E-05
(PID.TID 0000.0001) %MON surfExpan_theta_mean         =  -2.7960030340384E-19
(PID.TID 0000.0001) %MON surfExpan_salt_mean          =  -4.1940550785411E-19
(PID.TID 0000.0001) // =======================================================
(PID.TID 0000.0001) // End MONITOR dynamic field statistics
(PID.TID 0000.0001) // =======================================================
 cg2d: Sum(rhs),rhsMax =  -9.80210939400435E-03  2.38710820974376E-01
 cg2d: Sum(rhs),rhsMax =  -9.80277602028489E-03  2.38716369198699E-01
 cg2d: Sum(rhs),rhsMax =  -9.80344259848981E-03  2.38721917058165E-01
 cg2d: Sum(rhs),rhsMax =  -9.80410912800056E-03  2.38727464548945E-01
 cg2d: Sum(rhs),rhsMax =  -9.80477560905819E-03  2.38733011667192E-01
 cg2d: Sum(rhs),rhsMax =  -9.80544204165879E-03  2.38738558409072E-01
 cg2d: Sum(rhs),rhsMax =  -9.80610842608215E-03  2.38744104770758E-01
 cg2d: Sum(rhs),rhsMax =  -9.80677476186059E-03  2.38749650748420E-01
 cg2d: Sum(rhs),rhsMax =  -9.80744104914847E-03  2.38755196338221E-01
 cg2d: Sum(rhs),rhsMax =  -9.80810728866998E-03  2.38760741536338E-01
 cg2d: Sum(rhs),rhsMax =  -9.80877347954294E-03  2.38766286338949E-01
 cg2d: Sum(rhs),rhsMax =  -9.80943962219268E-03  2.38771830742233E-01
 cg2d: Sum(rhs),rhsMax =  -9.81010571627280E-03  2.38777374742358E-01
 cg2d: Sum(rhs),rhsMax =  -9.81077176260172E-03  2.38782918335518E-01
 cg2d: Sum(rhs),rhsMax =  -9.81143776062364E-03  2.38788461517900E-01
 cg2d: Sum(rhs),rhsMax =  -9.81210371064668E-03  2.38794004285673E-01
 cg2d: Sum(rhs),rhsMax =  -9.81276961250948E-03  2.38799546635042E-01
 cg2d: Sum(rhs),rhsMax =  -9.81343546637686E-03  2.38805088562189E-01
 cg2d: Sum(rhs),rhsMax =  -9.81410127228888E-03  2.38810630063308E-01
 cg2d: Sum(rhs),rhsMax =  -9.81476703035419E-03  2.38816171134593E-01
 cg2d: Sum(rhs),rhsMax =  -9.81543274022068E-03  2.38821711772245E-01
 cg2d: Sum(rhs),rhsMax =  -9.81609840229931E-03  2.38827251972461E-01
 cg2d: Sum(rhs),rhsMax =  -9.81676401606241E-03  2.38832791731442E-01
 cg2d: Sum(rhs),rhsMax =  -9.81742958138530E-03  2.38838331045390E-01
 cg2d: Sum(rhs),rhsMax =  -9.81809509956301E-03  2.38843869910520E-01
 cg2d: Sum(rhs),rhsMax =  -9.81876056903671E-03  2.38849408323024E-01
 cg2d: Sum(rhs),rhsMax =  -9.81942599144658E-03  2.38854946279133E-01
 cg2d: Sum(rhs),rhsMax =  -9.82009136608160E-03  2.38860483775044E-01
 cg2d: Sum(rhs),rhsMax =  -9.82075669283841E-03  2.38866020806979E-01
 cg2d: Sum(rhs),rhsMax =  -9.82142197191273E-03  2.38871557371150E-01
 cg2d: Sum(rhs),rhsMax =  -9.82208720304653E-03  2.38877093463788E-01
 cg2d: Sum(rhs),rhsMax =  -9.82275238666904E-03  2.38882629081110E-01
 cg2d: Sum(rhs),rhsMax =  -9.82341752283074E-03  2.38888164219339E-01
 cg2d: Sum(rhs),rhsMax =  -9.82408261110924E-03  2.38893698874701E-01
 cg2d: Sum(rhs),rhsMax =  -9.82474765220612E-03  2.38899233043432E-01
 cg2d: Sum(rhs),rhsMax =  -9.82541264544162E-03  2.38904766721758E-01
 cg2d: Sum(rhs),rhsMax =  -9.82607759168964E-03  2.38910299905910E-01
 cg2d: Sum(rhs),rhsMax =  -9.82674249017612E-03  2.38915832592141E-01
 cg2d: Sum(rhs),rhsMax =  -9.82740734148575E-03  2.38921364776673E-01
 cg2d: Sum(rhs),rhsMax =  -9.82807214543465E-03  2.38926896455755E-01
 cg2d: Sum(rhs),rhsMax =  -9.82873690154011E-03  2.38932427625632E-01
 cg2d: Sum(rhs),rhsMax =  -9.82940161105474E-03  2.38937958282553E-01
 cg2d: Sum(rhs),rhsMax =  -9.83006627278678E-03  2.38943488422761E-01
 cg2d: Sum(rhs),rhsMax =  -9.83073088719777E-03  2.38949018042512E-01
 cg2d: Sum(rhs),rhsMax =  -9.83139545531531E-03  2.38954547138057E-01
 cg2d: Sum(rhs),rhsMax =  -9.83205997594694E-03  2.38960075705657E-01
 cg2d: Sum(rhs),rhsMax =  -9.83272444938786E-03  2.38965603741570E-01
 cg2d: Sum(rhs),rhsMax =  -9.83338887559640E-03  2.38971131242058E-01
 cg2d: Sum(rhs),rhsMax =  -9.83405325513183E-03  2.38976658203382E-01
 cg2d: Sum(rhs),rhsMax =  -9.83471758779059E-03  2.38982184621816E-01
 cg2d: Sum(rhs),rhsMax =  -9.83538187317108E-03  2.38987710493627E-01
 cg2d: Sum(rhs),rhsMax =  -9.83604611210861E-03  2.38993235815088E-01
 cg2d: Sum(rhs),rhsMax =  -9.83671030413632E-03  2.38998760582467E-01
 cg2d: Sum(rhs),rhsMax =  -9.83737444913664E-03  2.39004284792053E-01
 cg2d: Sum(rhs),rhsMax =  -9.83803854731402E-03  2.39009808440117E-01
 cg2d: Sum(rhs),rhsMax =  -9.83870259887466E-03  2.39015331522952E-01
 cg2d: Sum(rhs),rhsMax =  -9.83936660395495E-03  2.39020854036838E-01
 cg2d: Sum(rhs),rhsMax =  -9.84003056264000E-03  2.39026375978059E-01
 cg2d: Sum(rhs),rhsMax =  -9.84069447448538E-03  2.39031897342912E-01
 cg2d: Sum(rhs),rhsMax =  -9.84135834047993E-03  2.39037418127689E-01
 cg2d: Sum(rhs),rhsMax =  -9.84202215952285E-03  2.39042938328689E-01
 cg2d: Sum(rhs),rhsMax =  -9.84268593226770E-03  2.39048457942205E-01
 cg2d: Sum(rhs),rhsMax =  -9.84334965888255E-03  2.39053976964550E-01
 cg2d: Sum(rhs),rhsMax =  -9.84401333890282E-03  2.39059495392016E-01
 cg2d: Sum(rhs),rhsMax =  -9.84467697295241E-03  2.39065013220919E-01
 cg2d: Sum(rhs),rhsMax =  -9.84534056079999E-03  2.39070530447573E-01
 cg2d: Sum(rhs),rhsMax =  -9.84600410247839E-03  2.39076047068277E-01
 cg2d: Sum(rhs),rhsMax =  -9.84666759817078E-03  2.39081563079360E-01
 cg2d: Sum(rhs),rhsMax =  -9.84733104793657E-03  2.39087078477140E-01
 cg2d: Sum(rhs),rhsMax =  -9.84799445157752E-03  2.39092593257929E-01
 cg2d: Sum(rhs),rhsMax =  -9.84865780953059E-03  2.39098107418062E-01
 cg2d: Sum(rhs),rhsMax =  -9.84932112138940E-03  2.39103620953862E-01
(PID.TID 0000.0001)      cg2d_init_res =   2.80766917413170E-04
(PID.TID 0000.0001)      cg2d_iters(min,last) =      -1      66
(PID.TID 0000.0001)      cg2d_last_res =   9.55284711160408E-08
(PID.TID 0000.0001) // =======================================================
(PID.TID 0000.0001) // Begin MONITOR dynamic field statistics
(PID.TID 0000.0001) // =======================================================
(PID.TID 0000.0001) %MON time_tsnumber                =                 21096
(PID.TID 0000.0001) %MON time_secondsf                =   2.5315200000000E+07
(PID.TID 0000.0001) %MON dynstat_eta_max              =   4.1307611833850E-01
(PID.TID 0000.0001) %MON dynstat_eta_min              =  -1.2552466377270E-01
(PID.TID 0000.0001) %MON dynstat_eta_mean             =   1.1770072072889E-05
(PID.TID 0000.0001) %MON dynstat_eta_sd               =   1.5599540117510E-01
(PID.TID 0000.0001) %MON dynstat_eta_del2             =   3.9293305028559E-05
(PID.TID 0000.0001) %MON dynstat_uvel_max             =   1.8416589529174E-01
(PID.TID 0000.0001) %MON dynstat_uvel_min             =  -1.5420509860885E-01
(PID.TID 0000.0001) %MON dynstat_uvel_mean            =  -1.5866808267884E-08
(PID.TID 0000.0001) %MON dynstat_uvel_sd              =   6.3360480768477E-02
(PID.TID 0000.0001) %MON dynstat_uvel_del2            =   7.8522642416657E-05
(PID.TID 0000.0001) %MON dynstat_vvel_max             =   1.3632380863983E-01
(PID.TID 0000.0001) %MON dynstat_vvel_min             =  -1.6323506922893E-01
(PID.TID 0000.0001) %MON dynstat_vvel_mean            =   9.6201069418176E-08
(PID.TID 0000.0001) %MON dynstat_vvel_sd              =   5.8614037686546E-02
(PID.TID 0000.0001) %MON dynstat_vvel_del2            =   3.7757509821650E-05
(PID.TID 0000.0001) %MON dynstat_wvel_max             =   1.1141601015042E-08
(PID.TID 0000.0001) %MON dynstat_wvel_min             =  -4.1663535993393E-09
(PID.TID 0000.0001) %MON dynstat_wvel_mean            =  -6.8820295635103E-21
(PID.TID 0000.0001) %MON dynstat_wvel_sd              =   3.7151077080002E-09
(PID.TID 0000.0001) %MON dynstat_wvel_del2            =   1.0951439697001E-12
(PID.TID 0000.0001) %MON dynstat_theta_max            =   2.0000000000000E+01
(PID.TID 0000.0001) %MON dynstat_theta_min            =   2.0000000000000E+01
(PID.TID 0000.0001) %MON dynstat_theta_mean           =   2.0000000000000E+01
(PID.TID 0000.0001) %MON dynstat_theta_sd             =   3.8014036363165E-13
(PID.TID 0000.0001) %MON dynstat_theta_del2           =   0.0000000000000E+00
(PID.TID 0000.0001) %MON dynstat_salt_max             =   3.0000000000000E+01
(PID.TID 0000.0001) %MON dynstat_salt_min             =   3.0000000000000E+01
(PID.TID 0000.0001) %MON dynstat_salt_mean            =   2.9999999999999E+01
(PID.TID 0000.0001) %MON dynstat_salt_sd              =   5.5777604757167E-13
(PID.TID 0000.0001) %MON dynstat_salt_del2            =   0.0000000000000E+00
(PID.TID 0000.0001) %MON trAdv_CFL_u_max              =   1.1049407918074E-02
(PID.TID 0000.0001) %MON trAdv_CFL_v_max              =   9.7811332114490E-03
(PID.TID 0000.0001) %MON trAdv_CFL_w_max              =   2.9378016538494E-09
(PID.TID 0000.0001) %MON advcfl_uvel_max              =   1.1049953717504E-02
(PID.TID 0000.0001) %MON advcfl_vvel_max              =   9.7941041537358E-03
(PID.TID 0000.0001) %MON advcfl_wvel_max              =   5.3479684872204E-09
(PID.TID 0000.0001) %MON advcfl_W_hf_max              =   0.0000000000000E+00
(PID.TID 0000.0001) %MON pe_b_mean                    =   2.4948640588773E-05
(PID.TID 0000.0001) %MON ke_max                       =   1.6989563648372E-02
(PID.TID 0000.0001) %MON ke_mean                      =   3.6565789400394E-03
(PID.TID 0000.0001) %MON ke_vol                       =   6.8893493896486E+15
(PID.TID 0000.0001) %MON vort_r_min                   =  -1.2266415908510E-06
(PID.TID 0000.0001) %MON vort_r_max                   =   3.9245191480757E-06
(PID.TID 0000.0001) %MON vort_a_mean                  =   1.0600000000000E-04
(PID.TID 0000.0001) %MON vort_a_sd                    =   3.5877268093330E-06
(PID.TID 0000.0001) %MON vort_p_mean                  =   1.1652272308690E-04
(PID.TID 0000.0001) %MON vort_p_sd                    =   4.1792929637092E-05
(PID.TID 0000.0001) %MON surfExpan_theta_mean         =  -1.3761507489107E-19
(PID.TID 0000.0001) %MON surfExpan_salt_mean          =  -2.0643650739455E-19
(PID.TID 0000.0001) // =======================================================
(PID.TID 0000.0001) // End MONITOR dynamic field statistics
(PID.TID 0000.0001) // =======================================================
 cg2d: Sum(rhs),rhsMax =  -9.84998438749030E-03  2.39109133861655E-01
 cg2d: Sum(rhs),rhsMax =  -9.85064760789467E-03  2.39114646137784E-01
 cg2d: Sum(rhs),rhsMax =  -9.85131078285329E-03  2.39120157778580E-01
 cg2d: Sum(rhs),rhsMax =  -9.85197391239777E-03  2.39125668780385E-01
 cg2d: Sum(rhs),rhsMax =  -9.85263699629928E-03  2.39131179139533E-01
 cg2d: Sum(rhs),rhsMax =  -9.85330003405740E-03  2.39136688852378E-01
 cg2d: Sum(rhs),rhsMax =  -9.85396302752442E-03  2.39142197915261E-01
 cg2d: Sum(rhs),rhsMax =  -9.85462597452249E-03  2.39147706324537E-01
 cg2d: Sum(rhs),rhsMax =  -9.85528887679325E-03  2.39153214076560E-01
 cg2d: Sum(rhs),rhsMax =  -9.85595173359256E-03  2.39158721167686E-01
 cg2d: Sum(rhs),rhsMax =  -9.85661454534555E-03  2.39164227594274E-01
 cg2d: Sum(rhs),rhsMax =  -9.85727731202029E-03  2.39169733352686E-01
 cg2d: Sum(rhs),rhsMax =  -9.85794003388654E-03  2.39175238439292E-01
 cg2d: Sum(rhs),rhsMax =  -9.85860271041207E-03  2.39180742850455E-01
 cg2d: Sum(rhs),rhsMax =  -9.85926534200476E-03  2.39186246582550E-01
 cg2d: Sum(rhs),rhsMax =  -9.85992792906464E-03  2.39191749631958E-01
 cg2d: Sum(rhs),rhsMax =  -9.86059047128193E-03  2.39197251995043E-01
 cg2d: Sum(rhs),rhsMax =  -9.86125296836095E-03  2.39202753668198E-01
 cg2d: Sum(rhs),rhsMax =  -9.86191542105278E-03  2.39208254647809E-01
 cg2d: Sum(rhs),rhsMax =  -9.86257782925820E-03  2.39213754930250E-01
 cg2d: Sum(rhs),rhsMax =  -9.86324019296111E-03  2.39219254511922E-01
 cg2d: Sum(rhs),rhsMax =  -9.86390251208152E-03  2.39224753389220E-01
 cg2d: Sum(rhs),rhsMax =  -9.86456478717563E-03  2.39230251558536E-01
 cg2d: Sum(rhs),rhsMax =  -9.86522701747842E-03  2.39235749016272E-01
 cg2d: Sum(rhs),rhsMax =  -9.86588920371977E-03  2.39241245758826E-01
 cg2d: Sum(rhs),rhsMax =  -9.86655134594996E-03  2.39246741782611E-01
 cg2d: Sum(rhs),rhsMax =  -9.86721344371064E-03  2.39252237084037E-01
 cg2d: Sum(rhs),rhsMax =  -9.86787549770986E-03  2.39257731659509E-01
 cg2d: Sum(rhs),rhsMax =  -9.86853750749253E-03  2.39263225505456E-01
 cg2d: Sum(rhs),rhsMax =  -9.86919947389871E-03  2.39268718618282E-01
 cg2d: Sum(rhs),rhsMax =  -9.86986139652462E-03  2.39274210994417E-01
 cg2d: Sum(rhs),rhsMax =  -9.87052327509815E-03  2.39279702630286E-01
 cg2d: Sum(rhs),rhsMax =  -9.87118511033987E-03  2.39285193522323E-01
 cg2d: Sum(rhs),rhsMax =  -9.87184690223940E-03  2.39290683666953E-01
 cg2d: Sum(rhs),rhsMax =  -9.87250865015666E-03  2.39296173060614E-01
 cg2d: Sum(rhs),rhsMax =  -9.87317035505492E-03  2.39301661699742E-01
 cg2d: Sum(rhs),rhsMax =  -9.87383201631501E-03  2.39307149580787E-01
 cg2d: Sum(rhs),rhsMax =  -9.87449363462469E-03  2.39312636700190E-01
 cg2d: Sum(rhs),rhsMax =  -9.87515520981134E-03  2.39318123054399E-01
 cg2d: Sum(rhs),rhsMax =  -9.87581674165092E-03  2.39323608639864E-01
 cg2d: Sum(rhs),rhsMax =  -9.87647823109970E-03  2.39329093453046E-01
 cg2d: Sum(rhs),rhsMax =  -9.87713967696090E-03  2.39334577490397E-01
 cg2d: Sum(rhs),rhsMax =  -9.87780107987879E-03  2.39340060748389E-01
 cg2d: Sum(rhs),rhsMax =  -9.87846244032650E-03  2.39345543223478E-01
 cg2d: Sum(rhs),rhsMax =  -9.87912375824034E-03  2.39351024912143E-01
 cg2d: Sum(rhs),rhsMax =  -9.87978503360602E-03  2.39356505810842E-01
 cg2d: Sum(rhs),rhsMax =  -9.88044626625790E-03  2.39361985916068E-01
 cg2d: Sum(rhs),rhsMax =  -9.88110745645238E-03  2.39367465224285E-01
 cg2d: Sum(rhs),rhsMax =  -9.88176860421745E-03  2.39372943731992E-01
 cg2d: Sum(rhs),rhsMax =  -9.88242970951584E-03  2.39378421435659E-01
 cg2d: Sum(rhs),rhsMax =  -9.88309077304539E-03  2.39383898331784E-01
 cg2d: Sum(rhs),rhsMax =  -9.88375179428835E-03  2.39389374416866E-01
 cg2d: Sum(rhs),rhsMax =  -9.88441277370871E-03  2.39394849687384E-01
 cg2d: Sum(rhs),rhsMax =  -9.88507371136341E-03  2.39400324139860E-01
 cg2d: Sum(rhs),rhsMax =  -9.88573460730924E-03  2.39405797770786E-01
 cg2d: Sum(rhs),rhsMax =  -9.88639546093960E-03  2.39411270576675E-01
 cg2d: Sum(rhs),rhsMax =  -9.88705627314231E-03  2.39416742554021E-01
 cg2d: Sum(rhs),rhsMax =  -9.88771704384562E-03  2.39422213699365E-01
 cg2d: Sum(rhs),rhsMax =  -9.88837777287103E-03  2.39427684009205E-01
 cg2d: Sum(rhs),rhsMax =  -9.88903846095247E-03  2.39433153480067E-01
 cg2d: Sum(rhs),rhsMax =  -9.88969910716047E-03  2.39438622108484E-01
 cg2d: Sum(rhs),rhsMax =  -9.89035971248691E-03  2.39444089890980E-01
 cg2d: Sum(rhs),rhsMax =  -9.89102027635338E-03  2.39449556824090E-01
 cg2d: Sum(rhs),rhsMax =  -9.89168079988952E-03  2.39455022904337E-01
 cg2d: Sum(rhs),rhsMax =  -9.89234128179147E-03  2.39460488128276E-01
 cg2d: Sum(rhs),rhsMax =  -9.89300172304005E-03  2.39465952492449E-01
 cg2d: Sum(rhs),rhsMax =  -9.89366212351786E-03  2.39471415993397E-01
 cg2d: Sum(rhs),rhsMax =  -9.89432248349247E-03  2.39476878627675E-01
 cg2d: Sum(rhs),rhsMax =  -9.89498280277091E-03  2.39482340391831E-01
 cg2d: Sum(rhs),rhsMax =  -9.89564308174430E-03  2.39487801282431E-01
 cg2d: Sum(rhs),rhsMax =  -9.89630331999493E-03  2.39493261296033E-01
 cg2d: Sum(rhs),rhsMax =  -9.89696351858204E-03  2.39498720429207E-01
(PID.TID 0000.0001)      cg2d_init_res =   2.79594191045312E-04
(PID.TID 0000.0001)      cg2d_iters(min,last) =      -1      66
(PID.TID 0000.0001)      cg2d_last_res =   9.43841068512089E-08
(PID.TID 0000.0001) // =======================================================
(PID.TID 0000.0001) // Begin MONITOR dynamic field statistics
(PID.TID 0000.0001) // =======================================================
(PID.TID 0000.0001) %MON time_tsnumber                =                 21168
(PID.TID 0000.0001) %MON time_secondsf                =   2.5401600000000E+07
(PID.TID 0000.0001) %MON dynstat_eta_max              =   4.1403519811854E-01
(PID.TID 0000.0001) %MON dynstat_eta_min              =  -1.2569657417367E-01
(PID.TID 0000.0001) %MON dynstat_eta_mean             =   1.1846537841660E-05
(PID.TID 0000.0001) %MON dynstat_eta_sd               =   1.5630635694289E-01
(PID.TID 0000.0001) %MON dynstat_eta_del2             =   3.9366035487497E-05
(PID.TID 0000.0001) %MON dynstat_uvel_max             =   1.8447209896533E-01
(PID.TID 0000.0001) %MON dynstat_uvel_min             =  -1.5458395543856E-01
(PID.TID 0000.0001) %MON dynstat_uvel_mean            =  -1.1815789565591E-08
(PID.TID 0000.0001) %MON dynstat_uvel_sd              =   6.3487570926405E-02
(PID.TID 0000.0001) %MON dynstat_uvel_del2            =   7.8609103633934E-05
(PID.TID 0000.0001) %MON dynstat_vvel_max             =   1.3666509489034E-01
(PID.TID 0000.0001) %MON dynstat_vvel_min             =  -1.6349566513126E-01
(PID.TID 0000.0001) %MON dynstat_vvel_mean            =   9.6793536264636E-08
(PID.TID 0000.0001) %MON dynstat_vvel_sd              =   5.8732416596276E-02
(PID.TID 0000.0001) %MON dynstat_vvel_del2            =   3.7743885531348E-05
(PID.TID 0000.0001) %MON dynstat_wvel_max             =   1.1123273530175E-08
(PID.TID 0000.0001) %MON dynstat_wvel_min             =  -4.2114078320083E-09
(PID.TID 0000.0001) %MON dynstat_wvel_mean            =   8.6549818610769E-21
(PID.TID 0000.0001) %MON dynstat_wvel_sd              =   3.7045911057416E-09
(PID.TID 0000.0001) %MON dynstat_wvel_del2            =   1.0924623106890E-12
(PID.TID 0000.0001) %MON dynstat_theta_max            =   2.0000000000000E+01
(PID.TID 0000.0001) %MON dynstat_theta_min            =   2.0000000000000E+01
(PID.TID 0000.0001) %MON dynstat_theta_mean           =   2.0000000000000E+01
(PID.TID 0000.0001) %MON dynstat_theta_sd             =   3.8014036363165E-13
(PID.TID 0000.0001) %MON dynstat_theta_del2           =   0.0000000000000E+00
(PID.TID 0000.0001) %MON dynstat_salt_max             =   3.0000000000000E+01
(PID.TID 0000.0001) %MON dynstat_salt_min             =   3.0000000000000E+01
(PID.TID 0000.0001) %MON dynstat_salt_mean            =   2.9999999999999E+01
(PID.TID 0000.0001) %MON dynstat_salt_sd              =   5.5777604757167E-13
(PID.TID 0000.0001) %MON dynstat_salt_del2            =   0.0000000000000E+00
(PID.TID 0000.0001) %MON trAdv_CFL_u_max              =   1.1067777440321E-02
(PID.TID 0000.0001) %MON trAdv_CFL_v_max              =   9.7967495322477E-03
(PID.TID 0000.0001) %MON trAdv_CFL_w_max              =   2.9329712298454E-09
(PID.TID 0000.0001) %MON advcfl_uvel_max              =   1.1068325937920E-02
(PID.TID 0000.0001) %MON advcfl_vvel_max              =   9.8097399078756E-03
(PID.TID 0000.0001) %MON advcfl_wvel_max              =   5.3391712944838E-09
(PID.TID 0000.0001) %MON advcfl_W_hf_max              =   0.0000000000000E+00
(PID.TID 0000.0001) %MON pe_b_mean                    =   2.5048203215852E-05
(PID.TID 0000.0001) %MON ke_max                       =   1.7046105975689E-02
(PID.TID 0000.0001) %MON ke_mean                      =   3.6713092381353E-03
(PID.TID 0000.0001) %MON ke_vol                       =   6.8893493896486E+15
(PID.TID 0000.0001) %MON vort_r_min                   =  -1.2304291572687E-06
(PID.TID 0000.0001) %MON vort_r_max                   =   3.9308809528343E-06
(PID.TID 0000.0001) %MON vort_a_mean                  =   1.0600000000000E-04
(PID.TID 0000.0001) %MON vort_a_sd                    =   3.5879594148150E-06
(PID.TID 0000.0001) %MON vort_p_mean                  =   1.1652272308690E-04
(PID.TID 0000.0001) %MON vort_p_sd                    =   4.1792948038405E-05
(PID.TID 0000.0001) %MON surfExpan_theta_mean         =   1.7310321077780E-19
(PID.TID 0000.0001) %MON surfExpan_salt_mean          =   2.5965244769092E-19
(PID.TID 0000.0001) // =======================================================
(PID.TID 0000.0001) // End MONITOR dynamic field statistics
(PID.TID 0000.0001) // =======================================================
 cg2d: Sum(rhs),rhsMax =  -9.89762367627452E-03  2.39504178678518E-01
 cg2d: Sum(rhs),rhsMax =  -9.89828379403740E-03  2.39509636040540E-01
 cg2d: Sum(rhs),rhsMax =  -9.89894387189822E-03  2.39515092511850E-01
 cg2d: Sum(rhs),rhsMax =  -9.89960390965977E-03  2.39520548089023E-01
 cg2d: Sum(rhs),rhsMax =  -9.90026390843425E-03  2.39526002768658E-01
 cg2d: Sum(rhs),rhsMax =  -9.90092386655612E-03  2.39531456547327E-01
 cg2d: Sum(rhs),rhsMax =  -9.90158378536875E-03  2.39536909421636E-01
 cg2d: Sum(rhs),rhsMax =  -9.90224366449530E-03  2.39542361388167E-01
 cg2d: Sum(rhs),rhsMax =  -9.90290350446361E-03  2.39547812443533E-01
 cg2d: Sum(rhs),rhsMax =  -9.90356330466750E-03  2.39553262584326E-01
 cg2d: Sum(rhs),rhsMax =  -9.90422306618320E-03  2.39558711807161E-01
 cg2d: Sum(rhs),rhsMax =  -9.90488278794834E-03  2.39564160108645E-01
 cg2d: Sum(rhs),rhsMax =  -9.90554247121442E-03  2.39569607485393E-01
 cg2d: Sum(rhs),rhsMax =  -9.90620211524256E-03  2.39575053934031E-01
 cg2d: Sum(rhs),rhsMax =  -9.90686172015848E-03  2.39580499451172E-01
 cg2d: Sum(rhs),rhsMax =  -9.90752128648091E-03  2.39585944033451E-01
 cg2d: Sum(rhs),rhsMax =  -9.90818081461298E-03  2.39591387677492E-01
 cg2d: Sum(rhs),rhsMax =  -9.90884030404356E-03  2.39596830379932E-01
 cg2d: Sum(rhs),rhsMax =  -9.90949975462943E-03  2.39602272137410E-01
 cg2d: Sum(rhs),rhsMax =  -9.91015916674149E-03  2.39607712946570E-01
 cg2d: Sum(rhs),rhsMax =  -9.91081854095285E-03  2.39613152804058E-01
 cg2d: Sum(rhs),rhsMax =  -9.91147787699998E-03  2.39618591706519E-01
 cg2d: Sum(rhs),rhsMax =  -9.91213717501422E-03  2.39624029650614E-01
 cg2d: Sum(rhs),rhsMax =  -9.91279643486332E-03  2.39629466633002E-01
 cg2d: Sum(rhs),rhsMax =  -9.91345565667849E-03  2.39634902650338E-01
 cg2d: Sum(rhs),rhsMax =  -9.91411484123880E-03  2.39640337699293E-01
 cg2d: Sum(rhs),rhsMax =  -9.91477398748678E-03  2.39645771776542E-01
 cg2d: Sum(rhs),rhsMax =  -9.91543309687662E-03  2.39651204878747E-01
 cg2d: Sum(rhs),rhsMax =  -9.91609216860746E-03  2.39656637002597E-01
 cg2d: Sum(rhs),rhsMax =  -9.91675120255966E-03  2.39662068144773E-01
 cg2d: Sum(rhs),rhsMax =  -9.91741019915401E-03  2.39667498301959E-01
 cg2d: Sum(rhs),rhsMax =  -9.91806915925983E-03  2.39672927470849E-01
 cg2d: Sum(rhs),rhsMax =  -9.91872808212867E-03  2.39678355648131E-01
 cg2d: Sum(rhs),rhsMax =  -9.91938696804390E-03  2.39683782830509E-01
 cg2d: Sum(rhs),rhsMax =  -9.92004581701807E-03  2.39689209014690E-01
 cg2d: Sum(rhs),rhsMax =  -9.92070462921521E-03  2.39694634197380E-01
 cg2d: Sum(rhs),rhsMax =  -9.92136340493594E-03  2.39700058375277E-01
 cg2d: Sum(rhs),rhsMax =  -9.92202214400427E-03  2.39705481545117E-01
 cg2d: Sum(rhs),rhsMax =  -9.92268084656888E-03  2.39710903703602E-01
 cg2d: Sum(rhs),rhsMax =  -9.92333951266851E-03  2.39716324847464E-01
 cg2d: Sum(rhs),rhsMax =  -9.92399814293247E-03  2.39721744973430E-01
 cg2d: Sum(rhs),rhsMax =  -9.92465673656088E-03  2.39727164078232E-01
 cg2d: Sum(rhs),rhsMax =  -9.92531529404649E-03  2.39732582158610E-01
 cg2d: Sum(rhs),rhsMax =  -9.92597381616489E-03  2.39737999211294E-01
 cg2d: Sum(rhs),rhsMax =  -9.92663230169228E-03  2.39743415233040E-01
 cg2d: Sum(rhs),rhsMax =  -9.92729075220236E-03  2.39748830220591E-01
 cg2d: Sum(rhs),rhsMax =  -9.92794916646095E-03  2.39754244170700E-01
 cg2d: Sum(rhs),rhsMax =  -9.92860754576791E-03  2.39759657080130E-01
 cg2d: Sum(rhs),rhsMax =  -9.92926588974094E-03  2.39765068945638E-01
 cg2d: Sum(rhs),rhsMax =  -9.92992419784759E-03  2.39770479763986E-01
 cg2d: Sum(rhs),rhsMax =  -9.93058247086929E-03  2.39775889531951E-01
 cg2d: Sum(rhs),rhsMax =  -9.93124070864004E-03  2.39781298246306E-01
 cg2d: Sum(rhs),rhsMax =  -9.93189891193447E-03  2.39786705903832E-01
 cg2d: Sum(rhs),rhsMax =  -9.93255708001166E-03  2.39792112501311E-01
 cg2d: Sum(rhs),rhsMax =  -9.93321521312119E-03  2.39797518035524E-01
 cg2d: Sum(rhs),rhsMax =  -9.93387331158844E-03  2.39802922503274E-01
 cg2d: Sum(rhs),rhsMax =  -9.93453137545287E-03  2.39808325901344E-01
 cg2d: Sum(rhs),rhsMax =  -9.93518940476428E-03  2.39813728226552E-01
 cg2d: Sum(rhs),rhsMax =  -9.93584739964241E-03  2.39819129475683E-01
 cg2d: Sum(rhs),rhsMax =  -9.93650536024490E-03  2.39824529645563E-01
 cg2d: Sum(rhs),rhsMax =  -9.93716328672808E-03  2.39829928732997E-01
 cg2d: Sum(rhs),rhsMax =  -9.93782117909835E-03  2.39835326734803E-01
 cg2d: Sum(rhs),rhsMax =  -9.93847903740881E-03  2.39840723647808E-01
 cg2d: Sum(rhs),rhsMax =  -9.93913686164409E-03  2.39846119468839E-01
 cg2d: Sum(rhs),rhsMax =  -9.93979465224665E-03  2.39851514194724E-01
 cg2d: Sum(rhs),rhsMax =  -9.94045240911426E-03  2.39856907822298E-01
 cg2d: Sum(rhs),rhsMax =  -9.94111013263120E-03  2.39862300348400E-01
 cg2d: Sum(rhs),rhsMax =  -9.94176782272876E-03  2.39867691769883E-01
 cg2d: Sum(rhs),rhsMax =  -9.94242547872650E-03  2.39873082083589E-01
 cg2d: Sum(rhs),rhsMax =  -9.94308310157225E-03  2.39878471286374E-01
 cg2d: Sum(rhs),rhsMax =  -9.94374069178530E-03  2.39883859375097E-01
 cg2d: Sum(rhs),rhsMax =  -9.94439824817020E-03  2.39889246346618E-01
(PID.TID 0000.0001)      cg2d_init_res =   2.78382389542163E-04
(PID.TID 0000.0001)      cg2d_iters(min,last) =      -1      66
(PID.TID 0000.0001)      cg2d_last_res =   9.36130034616727E-08
(PID.TID 0000.0001) // =======================================================
(PID.TID 0000.0001) // Begin MONITOR dynamic field statistics
(PID.TID 0000.0001) // =======================================================
(PID.TID 0000.0001) %MON time_tsnumber                =                 21240
(PID.TID 0000.0001) %MON time_secondsf                =   2.5488000000000E+07
(PID.TID 0000.0001) %MON dynstat_eta_max              =   4.1499240651888E-01
(PID.TID 0000.0001) %MON dynstat_eta_min              =  -1.2586438216076E-01
(PID.TID 0000.0001) %MON dynstat_eta_mean             =   1.1922715124129E-05
(PID.TID 0000.0001) %MON dynstat_eta_sd               =   1.5661615761846E-01
(PID.TID 0000.0001) %MON dynstat_eta_del2             =   3.9438744204067E-05
(PID.TID 0000.0001) %MON dynstat_uvel_max             =   1.8478044568422E-01
(PID.TID 0000.0001) %MON dynstat_uvel_min             =  -1.5495701564120E-01
(PID.TID 0000.0001) %MON dynstat_uvel_mean            =  -7.7326406844880E-09
(PID.TID 0000.0001) %MON dynstat_uvel_sd              =   6.3614378247812E-02
(PID.TID 0000.0001) %MON dynstat_uvel_del2            =   7.8696046865859E-05
(PID.TID 0000.0001) %MON dynstat_vvel_max             =   1.3700413698797E-01
(PID.TID 0000.0001) %MON dynstat_vvel_min             =  -1.6375558131538E-01
(PID.TID 0000.0001) %MON dynstat_vvel_mean            =   9.6994934794660E-08
(PID.TID 0000.0001) %MON dynstat_vvel_sd              =   5.8850070599895E-02
(PID.TID 0000.0001) %MON dynstat_vvel_del2            =   3.7728216842326E-05
(PID.TID 0000.0001) %MON dynstat_wvel_max             =   1.1104231846184E-08
(PID.TID 0000.0001) %MON dynstat_wvel_min             =  -4.2347285369033E-09
(PID.TID 0000.0001) %MON dynstat_wvel_mean            =  -3.7890736040127E-21
(PID.TID 0000.0001) %MON dynstat_wvel_sd              =   3.6945211806900E-09
(PID.TID 0000.0001) %MON dynstat_wvel_del2            =   1.0901016183763E-12
(PID.TID 0000.0001) %MON dynstat_theta_max            =   2.0000000000000E+01
(PID.TID 0000.0001) %MON dynstat_theta_min            =   2.0000000000000E+01
(PID.TID 0000.0001) %MON dynstat_theta_mean           =   2.0000000000000E+01
(PID.TID 0000.0001) %MON dynstat_theta_sd             =   3.8014036363165E-13
(PID.TID 0000.0001) %MON dynstat_theta_del2           =   0.0000000000000E+00
(PID.TID 0000.0001) %MON dynstat_salt_max             =   3.0000000000000E+01
(PID.TID 0000.0001) %MON dynstat_salt_min             =   3.0000000000000E+01
(PID.TID 0000.0001) %MON dynstat_salt_mean            =   2.9999999999999E+01
(PID.TID 0000.0001) %MON dynstat_salt_sd              =   5.5777604757167E-13
(PID.TID 0000.0001) %MON dynstat_salt_del2            =   0.0000000000000E+00
(PID.TID 0000.0001) %MON trAdv_CFL_u_max              =   1.1086276389084E-02
(PID.TID 0000.0001) %MON trAdv_CFL_v_max              =   9.8123244141869E-03
(PID.TID 0000.0001) %MON trAdv_CFL_w_max              =   2.9279537291865E-09
(PID.TID 0000.0001) %MON advcfl_uvel_max              =   1.1086826741053E-02
(PID.TID 0000.0001) %MON advcfl_vvel_max              =   9.8253348789228E-03
(PID.TID 0000.0001) %MON advcfl_wvel_max              =   5.3300312861684E-09
(PID.TID 0000.0001) %MON advcfl_W_hf_max              =   0.0000000000000E+00
(PID.TID 0000.0001) %MON pe_b_mean                    =   2.5147593166173E-05
(PID.TID 0000.0001) %MON ke_max                       =   1.7103035915834E-02
(PID.TID 0000.0001) %MON ke_mean                      =   3.6860096087913E-03
(PID.TID 0000.0001) %MON ke_vol                       =   6.8893493896486E+15
(PID.TID 0000.0001) %MON vort_r_min                   =  -1.2342003758653E-06
(PID.TID 0000.0001) %MON vort_r_max                   =   3.9372944028488E-06
(PID.TID 0000.0001) %MON vort_a_mean                  =   1.0600000000000E-04
(PID.TID 0000.0001) %MON vort_a_sd                    =   3.5881910589232E-06
(PID.TID 0000.0001) %MON vort_p_mean                  =   1.1652272308690E-04
(PID.TID 0000.0001) %MON vort_p_sd                    =   4.1792966517549E-05
(PID.TID 0000.0001) %MON surfExpan_theta_mean         =  -7.5743067373679E-20
(PID.TID 0000.0001) %MON surfExpan_salt_mean          =  -1.1361207530314E-19
(PID.TID 0000.0001) // =======================================================
(PID.TID 0000.0001) // End MONITOR dynamic field statistics
(PID.TID 0000.0001) // =======================================================
 cg2d: Sum(rhs),rhsMax =  -9.94505577238718E-03  2.39894632197810E-01
 cg2d: Sum(rhs),rhsMax =  -9.94571326319260E-03  2.39900016925540E-01
 cg2d: Sum(rhs),rhsMax =  -9.94637072106291E-03  2.39905400526678E-01
 cg2d: Sum(rhs),rhsMax =  -9.94702814633500E-03  2.39910782998119E-01
 cg2d: Sum(rhs),rhsMax =  -9.94768553900134E-03  2.39916164336740E-01
 cg2d: Sum(rhs),rhsMax =  -9.94834289924594E-03  2.39921544539427E-01
 cg2d: Sum(rhs),rhsMax =  -9.94900022695555E-03  2.39926923603085E-01
 cg2d: Sum(rhs),rhsMax =  -9.94965752225407E-03  2.39932301524609E-01
 cg2d: Sum(rhs),rhsMax =  -9.95031478562958E-03  2.39937678300897E-01
 cg2d: Sum(rhs),rhsMax =  -9.95097201669570E-03  2.39943053928863E-01
 cg2d: Sum(rhs),rhsMax =  -9.95162921629129E-03  2.39948428405420E-01
 cg2d: Sum(rhs),rhsMax =  -9.95228638323690E-03  2.39953801727485E-01
 cg2d: Sum(rhs),rhsMax =  -9.95294351870680E-03  2.39959173891977E-01
 cg2d: Sum(rhs),rhsMax =  -9.95360062225011E-03  2.39964544895830E-01
 cg2d: Sum(rhs),rhsMax =  -9.95425769421747E-03  2.39969914735963E-01
 cg2d: Sum(rhs),rhsMax =  -9.95491473481026E-03  2.39975283409324E-01
 cg2d: Sum(rhs),rhsMax =  -9.95557174384108E-03  2.39980650912851E-01
 cg2d: Sum(rhs),rhsMax =  -9.95622872099363E-03  2.39986017243485E-01
 cg2d: Sum(rhs),rhsMax =  -9.95688566773466E-03  2.39991382398184E-01
 cg2d: Sum(rhs),rhsMax =  -9.95754258264633E-03  2.39996746373894E-01
 cg2d: Sum(rhs),rhsMax =  -9.95819946678635E-03  2.40002109167583E-01
 cg2d: Sum(rhs),rhsMax =  -9.95885631968979E-03  2.40007470776207E-01
 cg2d: Sum(rhs),rhsMax =  -9.95951314187772E-03  2.40012831196742E-01
 cg2d: Sum(rhs),rhsMax =  -9.96016993311491E-03  2.40018190426160E-01
 cg2d: Sum(rhs),rhsMax =  -9.96082669395918E-03  2.40023548461438E-01
 cg2d: Sum(rhs),rhsMax =  -9.96148342416872E-03  2.40028905299557E-01
 cg2d: Sum(rhs),rhsMax =  -9.96214012326825E-03  2.40034260937508E-01
 cg2d: Sum(rhs),rhsMax =  -9.96279679195217E-03  2.40039615372291E-01
 cg2d: Sum(rhs),rhsMax =  -9.96345343042323E-03  2.40044968600896E-01
 cg2d: Sum(rhs),rhsMax =  -9.96411003917036E-03  2.40050320620322E-01
 cg2d: Sum(rhs),rhsMax =  -9.96476661757156E-03  2.40055671427583E-01
 cg2d: Sum(rhs),rhsMax =  -9.96542316560650E-03  2.40061021019688E-01
 cg2d: Sum(rhs),rhsMax =  -9.96607968365025E-03  2.40066369393658E-01
 cg2d: Sum(rhs),rhsMax =  -9.96673617227059E-03  2.40071716546509E-01
 cg2d: Sum(rhs),rhsMax =  -9.96739263058143E-03  2.40077062475272E-01
 cg2d: Sum(rhs),rhsMax =  -9.96804905932742E-03  2.40082407176976E-01
 cg2d: Sum(rhs),rhsMax =  -9.96870545857570E-03  2.40087750648657E-01
 cg2d: Sum(rhs),rhsMax =  -9.96936182809189E-03  2.40093092887358E-01
 cg2d: Sum(rhs),rhsMax =  -9.97001816789845E-03  2.40098433890128E-01
 cg2d: Sum(rhs),rhsMax =  -9.97067447854807E-03  2.40103773654011E-01
 cg2d: Sum(rhs),rhsMax =  -9.97133076014754E-03  2.40109112176070E-01
 cg2d: Sum(rhs),rhsMax =  -9.97198701226757E-03  2.40114449453363E-01
 cg2d: Sum(rhs),rhsMax =  -9.97264323560158E-03  2.40119785482952E-01
 cg2d: Sum(rhs),rhsMax =  -9.97329942941384E-03  2.40125120261917E-01
 cg2d: Sum(rhs),rhsMax =  -9.97395559429195E-03  2.40130453787321E-01
 cg2d: Sum(rhs),rhsMax =  -9.97461173059766E-03  2.40135786056258E-01
 cg2d: Sum(rhs),rhsMax =  -9.97526783780772E-03  2.40141117065808E-01
 cg2d: Sum(rhs),rhsMax =  -9.97592391651118E-03  2.40146446813056E-01
 cg2d: Sum(rhs),rhsMax =  -9.97657996673612E-03  2.40151775295107E-01
 cg2d: Sum(rhs),rhsMax =  -9.97723598802499E-03  2.40157102509057E-01
 cg2d: Sum(rhs),rhsMax =  -9.97789198097538E-03  2.40162428452011E-01
 cg2d: Sum(rhs),rhsMax =  -9.97854794521240E-03  2.40167753121082E-01
 cg2d: Sum(rhs),rhsMax =  -9.97920388149073E-03  2.40173076513379E-01
 cg2d: Sum(rhs),rhsMax =  -9.97985978929839E-03  2.40178398626029E-01
 cg2d: Sum(rhs),rhsMax =  -9.98051566913115E-03  2.40183719456162E-01
 cg2d: Sum(rhs),rhsMax =  -9.98117152099487E-03  2.40189039000902E-01
 cg2d: Sum(rhs),rhsMax =  -9.98182734447203E-03  2.40194357257386E-01
 cg2d: Sum(rhs),rhsMax =  -9.98248313987175E-03  2.40199674222751E-01
 cg2d: Sum(rhs),rhsMax =  -9.98313890712756E-03  2.40204989894150E-01
 cg2d: Sum(rhs),rhsMax =  -9.98379464707096E-03  2.40210304268732E-01
 cg2d: Sum(rhs),rhsMax =  -9.98445035939973E-03  2.40215617343652E-01
 cg2d: Sum(rhs),rhsMax =  -9.98510604367797E-03  2.40220929116075E-01
 cg2d: Sum(rhs),rhsMax =  -9.98576170085913E-03  2.40226239583157E-01
 cg2d: Sum(rhs),rhsMax =  -9.98641733036990E-03  2.40231548742078E-01
 cg2d: Sum(rhs),rhsMax =  -9.98707293239397E-03  2.40236856590012E-01
 cg2d: Sum(rhs),rhsMax =  -9.98772850708439E-03  2.40242163124147E-01
 cg2d: Sum(rhs),rhsMax =  -9.98838405417720E-03  2.40247468341662E-01
 cg2d: Sum(rhs),rhsMax =  -9.98903957423228E-03  2.40252772239750E-01
 cg2d: Sum(rhs),rhsMax =  -9.98969506713786E-03  2.40258074815611E-01
 cg2d: Sum(rhs),rhsMax =  -9.99035053269060E-03  2.40263376066449E-01
 cg2d: Sum(rhs),rhsMax =  -9.99100597136048E-03  2.40268675989466E-01
 cg2d: Sum(rhs),rhsMax =  -9.99166138310504E-03  2.40273974581879E-01
(PID.TID 0000.0001)      cg2d_init_res =   2.77162064079471E-04
(PID.TID 0000.0001)      cg2d_iters(min,last) =      -1      66
(PID.TID 0000.0001)      cg2d_last_res =   9.33279059113565E-08
(PID.TID 0000.0001) // =======================================================
(PID.TID 0000.0001) // Begin MONITOR dynamic field statistics
(PID.TID 0000.0001) // =======================================================
(PID.TID 0000.0001) %MON time_tsnumber                =                 21312
(PID.TID 0000.0001) %MON time_secondsf                =   2.5574400000000E+07
(PID.TID 0000.0001) %MON dynstat_eta_max              =   4.1594778086003E-01
(PID.TID 0000.0001) %MON dynstat_eta_min              =  -1.2602864888083E-01
(PID.TID 0000.0001) %MON dynstat_eta_mean             =   1.1998581731519E-05
(PID.TID 0000.0001) %MON dynstat_eta_sd               =   1.5692483084319E-01
(PID.TID 0000.0001) %MON dynstat_eta_del2             =   3.9511400351020E-05
(PID.TID 0000.0001) %MON dynstat_uvel_max             =   1.8508990477740E-01
(PID.TID 0000.0001) %MON dynstat_uvel_min             =  -1.5532316332340E-01
(PID.TID 0000.0001) %MON dynstat_uvel_mean            =  -3.7424625758157E-09
(PID.TID 0000.0001) %MON dynstat_uvel_sd              =   6.3740765137779E-02
(PID.TID 0000.0001) %MON dynstat_uvel_del2            =   7.8783122382736E-05
(PID.TID 0000.0001) %MON dynstat_vvel_max             =   1.3734084830944E-01
(PID.TID 0000.0001) %MON dynstat_vvel_min             =  -1.6401565282247E-01
(PID.TID 0000.0001) %MON dynstat_vvel_mean            =   9.6793418601978E-08
(PID.TID 0000.0001) %MON dynstat_vvel_sd              =   5.8967167964503E-02
(PID.TID 0000.0001) %MON dynstat_vvel_del2            =   3.7710666465439E-05
(PID.TID 0000.0001) %MON dynstat_wvel_max             =   1.1084162979969E-08
(PID.TID 0000.0001) %MON dynstat_wvel_min             =  -4.2385307597579E-09
(PID.TID 0000.0001) %MON dynstat_wvel_mean            =  -1.4224050156978E-20
(PID.TID 0000.0001) %MON dynstat_wvel_sd              =   3.6847579200590E-09
(PID.TID 0000.0001) %MON dynstat_wvel_del2            =   1.0881468492435E-12
(PID.TID 0000.0001) %MON dynstat_theta_max            =   2.0000000000000E+01
(PID.TID 0000.0001) %MON dynstat_theta_min            =   2.0000000000000E+01
(PID.TID 0000.0001) %MON dynstat_theta_mean           =   2.0000000000000E+01
(PID.TID 0000.0001) %MON dynstat_theta_sd             =   3.8014036363165E-13
(PID.TID 0000.0001) %MON dynstat_theta_del2           =   0.0000000000000E+00
(PID.TID 0000.0001) %MON dynstat_salt_max             =   3.0000000000000E+01
(PID.TID 0000.0001) %MON dynstat_salt_min             =   3.0000000000000E+01
(PID.TID 0000.0001) %MON dynstat_salt_mean            =   2.9999999999999E+01
(PID.TID 0000.0001) %MON dynstat_salt_sd              =   5.5777604757167E-13
(PID.TID 0000.0001) %MON dynstat_salt_del2            =   0.0000000000000E+00
(PID.TID 0000.0001) %MON trAdv_CFL_u_max              =   1.1104842946261E-02
(PID.TID 0000.0001) %MON trAdv_CFL_v_max              =   9.8279079240164E-03
(PID.TID 0000.0001) %MON trAdv_CFL_w_max              =   2.9226663974533E-09
(PID.TID 0000.0001) %MON advcfl_uvel_max              =   1.1105394286644E-02
(PID.TID 0000.0001) %MON advcfl_vvel_max              =   9.8409391693482E-03
(PID.TID 0000.0001) %MON advcfl_wvel_max              =   5.3203982303850E-09
(PID.TID 0000.0001) %MON advcfl_W_hf_max              =   0.0000000000000E+00
(PID.TID 0000.0001) %MON pe_b_mean                    =   2.5246817132626E-05
(PID.TID 0000.0001) %MON ke_max                       =   1.7160161166012E-02
(PID.TID 0000.0001) %MON ke_mean                      =   3.7006808258544E-03
(PID.TID 0000.0001) %MON ke_vol                       =   6.8893493896486E+15
(PID.TID 0000.0001) %MON vort_r_min                   =  -1.2379566545437E-06
(PID.TID 0000.0001) %MON vort_r_max                   =   3.9437368708085E-06
(PID.TID 0000.0001) %MON vort_a_mean                  =   1.0600000000000E-04
(PID.TID 0000.0001) %MON vort_a_sd                    =   3.5884215225826E-06
(PID.TID 0000.0001) %MON vort_p_mean                  =   1.1652272308690E-04
(PID.TID 0000.0001) %MON vort_p_sd                    =   4.1792984867928E-05
(PID.TID 0000.0001) %MON surfExpan_theta_mean         =  -2.8446140381493E-19
(PID.TID 0000.0001) %MON surfExpan_salt_mean          =  -4.2667947446833E-19
(PID.TID 0000.0001) // =======================================================
(PID.TID 0000.0001) // End MONITOR dynamic field statistics
(PID.TID 0000.0001) // =======================================================
 cg2d: Sum(rhs),rhsMax =  -9.99231676776933E-03  2.40279271840905E-01
 cg2d: Sum(rhs),rhsMax =  -9.99297212547098E-03  2.40284567763768E-01
 cg2d: Sum(rhs),rhsMax =  -9.99362745648882E-03  2.40289862347691E-01
 cg2d: Sum(rhs),rhsMax =  -9.99428276084081E-03  2.40295155589918E-01
 cg2d: Sum(rhs),rhsMax =  -9.99493803815659E-03  2.40300447487678E-01
 cg2d: Sum(rhs),rhsMax =  -9.99559328875368E-03  2.40305738038223E-01
 cg2d: Sum(rhs),rhsMax =  -9.99624851339557E-03  2.40311027238797E-01
 cg2d: Sum(rhs),rhsMax =  -9.99690371112292E-03  2.40316315086658E-01
 cg2d: Sum(rhs),rhsMax =  -9.99755888244042E-03  2.40321601579061E-01
 cg2d: Sum(rhs),rhsMax =  -9.99821402716173E-03  2.40326886713275E-01
 cg2d: Sum(rhs),rhsMax =  -9.99886914581523E-03  2.40332170486571E-01
 cg2d: Sum(rhs),rhsMax =  -9.99952423815008E-03  2.40337452896223E-01
 cg2d: Sum(rhs),rhsMax =  -1.00001793037118E-02  2.40342733939515E-01
 cg2d: Sum(rhs),rhsMax =  -1.00008343438137E-02  2.40348013613731E-01
 cg2d: Sum(rhs),rhsMax =  -1.00014893570599E-02  2.40353291916165E-01
 cg2d: Sum(rhs),rhsMax =  -1.00021443447999E-02  2.40358568844110E-01
 cg2d: Sum(rhs),rhsMax =  -1.00027993064032E-02  2.40363844394873E-01
 cg2d: Sum(rhs),rhsMax =  -1.00034542418945E-02  2.40369118565756E-01
 cg2d: Sum(rhs),rhsMax =  -1.00041091516642E-02  2.40374391354076E-01
 cg2d: Sum(rhs),rhsMax =  -1.00047640354671E-02  2.40379662757152E-01
 cg2d: Sum(rhs),rhsMax =  -1.00054188932185E-02  2.40384932772310E-01
 cg2d: Sum(rhs),rhsMax =  -1.00060737254561E-02  2.40390201396878E-01
 cg2d: Sum(rhs),rhsMax =  -1.00067285315629E-02  2.40395468628188E-01
 cg2d: Sum(rhs),rhsMax =  -1.00073833118586E-02  2.40400734463575E-01
 cg2d: Sum(rhs),rhsMax =  -1.00080380667977E-02  2.40405998900404E-01
 cg2d: Sum(rhs),rhsMax =  -1.00086927962350E-02  2.40411261936001E-01
 cg2d: Sum(rhs),rhsMax =  -1.00093474993173E-02  2.40416523567738E-01
 cg2d: Sum(rhs),rhsMax =  -1.00100021773720E-02  2.40421783792972E-01
 cg2d: Sum(rhs),rhsMax =  -1.00106568301106E-02  2.40427042609077E-01
 cg2d: Sum(rhs),rhsMax =  -1.00113114568679E-02  2.40432300013415E-01
 cg2d: Sum(rhs),rhsMax =  -1.00119660583474E-02  2.40437556003369E-01
 cg2d: Sum(rhs),rhsMax =  -1.00126206347461E-02  2.40442810576325E-01
 cg2d: Sum(rhs),rhsMax =  -1.00132751854370E-02  2.40448063729667E-01
 cg2d: Sum(rhs),rhsMax =  -1.00139297106678E-02  2.40453315460794E-01
 cg2d: Sum(rhs),rhsMax =  -1.00145842104208E-02  2.40458565767105E-01
 cg2d: Sum(rhs),rhsMax =  -1.00152386855052E-02  2.40463814646011E-01
 cg2d: Sum(rhs),rhsMax =  -1.00158931346580E-02  2.40469062094908E-01
 cg2d: Sum(rhs),rhsMax =  -1.00165475587966E-02  2.40474308111230E-01
 cg2d: Sum(rhs),rhsMax =  -1.00172019577524E-02  2.40479552692382E-01
 cg2d: Sum(rhs),rhsMax =  -1.00178563315083E-02  2.40484795835803E-01
 cg2d: Sum(rhs),rhsMax =  -1.00185106799207E-02  2.40490037538927E-01
 cg2d: Sum(rhs),rhsMax =  -1.00191650038095E-02  2.40495277799189E-01
 cg2d: Sum(rhs),rhsMax =  -1.00198193023664E-02  2.40500516614033E-01
 cg2d: Sum(rhs),rhsMax =  -1.00204735756309E-02  2.40505753980913E-01
 cg2d: Sum(rhs),rhsMax =  -1.00211278238757E-02  2.40510989897278E-01
 cg2d: Sum(rhs),rhsMax =  -1.00217820469925E-02  2.40516224360596E-01
 cg2d: Sum(rhs),rhsMax =  -1.00224362452131E-02  2.40521457368327E-01
 cg2d: Sum(rhs),rhsMax =  -1.00230904184253E-02  2.40526688917949E-01
 cg2d: Sum(rhs),rhsMax =  -1.00237445661711E-02  2.40531919006937E-01
 cg2d: Sum(rhs),rhsMax =  -1.00243986897512E-02  2.40537147632775E-01
 cg2d: Sum(rhs),rhsMax =  -1.00250527876378E-02  2.40542374792951E-01
 cg2d: Sum(rhs),rhsMax =  -1.00257068607093E-02  2.40547600484957E-01
 cg2d: Sum(rhs),rhsMax =  -1.00263609090189E-02  2.40552824706303E-01
 cg2d: Sum(rhs),rhsMax =  -1.00270149325904E-02  2.40558047454486E-01
 cg2d: Sum(rhs),rhsMax =  -1.00276689313100E-02  2.40563268727020E-01
 cg2d: Sum(rhs),rhsMax =  -1.00283229044136E-02  2.40568488521426E-01
 cg2d: Sum(rhs),rhsMax =  -1.00289768530538E-02  2.40573706835219E-01
 cg2d: Sum(rhs),rhsMax =  -1.00296307763560E-02  2.40578923665935E-01
 cg2d: Sum(rhs),rhsMax =  -1.00302846753563E-02  2.40584139011108E-01
 cg2d: Sum(rhs),rhsMax =  -1.00309385492143E-02  2.40589352868279E-01
 cg2d: Sum(rhs),rhsMax =  -1.00315923979765E-02  2.40594565234980E-01
 cg2d: Sum(rhs),rhsMax =  -1.00322462218938E-02  2.40599776108784E-01
 cg2d: Sum(rhs),rhsMax =  -1.00329000209335E-02  2.40604985487230E-01
 cg2d: Sum(rhs),rhsMax =  -1.00335537953450E-02  2.40610193367894E-01
 cg2d: Sum(rhs),rhsMax =  -1.00342075444180E-02  2.40615399748335E-01
 cg2d: Sum(rhs),rhsMax =  -1.00348612688013E-02  2.40620604626131E-01
 cg2d: Sum(rhs),rhsMax =  -1.00355149682281E-02  2.40625807998864E-01
 cg2d: Sum(rhs),rhsMax =  -1.00361686429876E-02  2.40631009864118E-01
 cg2d: Sum(rhs),rhsMax =  -1.00368222923283E-02  2.40636210219483E-01
 cg2d: Sum(rhs),rhsMax =  -1.00374759169632E-02  2.40641409062563E-01
 cg2d: Sum(rhs),rhsMax =  -1.00381295167449E-02  2.40646606390952E-01
 cg2d: Sum(rhs),rhsMax =  -1.00387830913370E-02  2.40651802202264E-01
(PID.TID 0000.0001)      cg2d_init_res =   2.75963024590454E-04
(PID.TID 0000.0001)      cg2d_iters(min,last) =      -1      66
(PID.TID 0000.0001)      cg2d_last_res =   9.35629004793248E-08
(PID.TID 0000.0001) // =======================================================
(PID.TID 0000.0001) // Begin MONITOR dynamic field statistics
(PID.TID 0000.0001) // =======================================================
(PID.TID 0000.0001) %MON time_tsnumber                =                 21384
(PID.TID 0000.0001) %MON time_secondsf                =   2.5660800000000E+07
(PID.TID 0000.0001) %MON dynstat_eta_max              =   4.1690134206635E-01
(PID.TID 0000.0001) %MON dynstat_eta_min              =  -1.2618999234983E-01
(PID.TID 0000.0001) %MON dynstat_eta_mean             =   1.2074113366433E-05
(PID.TID 0000.0001) %MON dynstat_eta_sd               =   1.5723240509303E-01
(PID.TID 0000.0001) %MON dynstat_eta_del2             =   3.9583969469202E-05
(PID.TID 0000.0001) %MON dynstat_uvel_max             =   1.8539943029904E-01
(PID.TID 0000.0001) %MON dynstat_uvel_min             =  -1.5568153522089E-01
(PID.TID 0000.0001) %MON dynstat_uvel_mean            =   3.8027021024353E-11
(PID.TID 0000.0001) %MON dynstat_uvel_sd              =   6.3866603202014E-02
(PID.TID 0000.0001) %MON dynstat_uvel_del2            =   7.8869983842680E-05
(PID.TID 0000.0001) %MON dynstat_vvel_max             =   1.3767530265201E-01
(PID.TID 0000.0001) %MON dynstat_vvel_min             =  -1.6427667182428E-01
(PID.TID 0000.0001) %MON dynstat_vvel_mean            =   9.6192284413455E-08
(PID.TID 0000.0001) %MON dynstat_vvel_sd              =   5.9083873230713E-02
(PID.TID 0000.0001) %MON dynstat_vvel_del2            =   3.7691397447860E-05
(PID.TID 0000.0001) %MON dynstat_wvel_max             =   1.1062761267676E-08
(PID.TID 0000.0001) %MON dynstat_wvel_min             =  -4.2312167404452E-09
(PID.TID 0000.0001) %MON dynstat_wvel_mean            =   8.6068999078432E-21
(PID.TID 0000.0001) %MON dynstat_wvel_sd              =   3.6751299896746E-09
(PID.TID 0000.0001) %MON dynstat_wvel_del2            =   1.0866519447934E-12
(PID.TID 0000.0001) %MON dynstat_theta_max            =   2.0000000000000E+01
(PID.TID 0000.0001) %MON dynstat_theta_min            =   2.0000000000000E+01
(PID.TID 0000.0001) %MON dynstat_theta_mean           =   2.0000000000000E+01
(PID.TID 0000.0001) %MON dynstat_theta_sd             =   3.8014036363165E-13
(PID.TID 0000.0001) %MON dynstat_theta_del2           =   0.0000000000000E+00
(PID.TID 0000.0001) %MON dynstat_salt_max             =   3.0000000000000E+01
(PID.TID 0000.0001) %MON dynstat_salt_min             =   3.0000000000000E+01
(PID.TID 0000.0001) %MON dynstat_salt_mean            =   2.9999999999999E+01
(PID.TID 0000.0001) %MON dynstat_salt_sd              =   5.5777604757167E-13
(PID.TID 0000.0001) %MON dynstat_salt_del2            =   0.0000000000000E+00
(PID.TID 0000.0001) %MON trAdv_CFL_u_max              =   1.1123414361852E-02
(PID.TID 0000.0001) %MON trAdv_CFL_v_max              =   9.8435475715650E-03
(PID.TID 0000.0001) %MON trAdv_CFL_w_max              =   2.9170286844922E-09
(PID.TID 0000.0001) %MON advcfl_uvel_max              =   1.1123965817943E-02
(PID.TID 0000.0001) %MON advcfl_vvel_max              =   9.8566003094569E-03
(PID.TID 0000.0001) %MON advcfl_wvel_max              =   5.3101254084846E-09
(PID.TID 0000.0001) %MON advcfl_W_hf_max              =   0.0000000000000E+00
(PID.TID 0000.0001) %MON pe_b_mean                    =   2.5345882155082E-05
(PID.TID 0000.0001) %MON ke_max                       =   1.7217287180184E-02
(PID.TID 0000.0001) %MON ke_mean                      =   3.7153240344861E-03
(PID.TID 0000.0001) %MON ke_vol                       =   6.8893493896486E+15
(PID.TID 0000.0001) %MON vort_r_min                   =  -1.2416997789635E-06
(PID.TID 0000.0001) %MON vort_r_max                   =   3.9501854274596E-06
(PID.TID 0000.0001) %MON vort_a_mean                  =   1.0600000000000E-04
(PID.TID 0000.0001) %MON vort_a_sd                    =   3.5886506071766E-06
(PID.TID 0000.0001) %MON vort_p_mean                  =   1.1652272308690E-04
(PID.TID 0000.0001) %MON vort_p_sd                    =   4.1793002922387E-05
(PID.TID 0000.0001) %MON surfExpan_theta_mean         =   1.7215961002471E-19
(PID.TID 0000.0001) %MON surfExpan_salt_mean          =   2.5823183591456E-19
(PID.TID 0000.0001) // =======================================================
(PID.TID 0000.0001) // End MONITOR dynamic field statistics
(PID.TID 0000.0001) // =======================================================
 cg2d: Sum(rhs),rhsMax =  -1.00394366407897E-02  2.40656996494114E-01
 cg2d: Sum(rhs),rhsMax =  -1.00400901651365E-02  2.40662189264120E-01
 cg2d: Sum(rhs),rhsMax =  -1.00407436648059E-02  2.40667380509913E-01
 cg2d: Sum(rhs),rhsMax =  -1.00413971390484E-02  2.40672570229124E-01
 cg2d: Sum(rhs),rhsMax =  -1.00420505882147E-02  2.40677758419380E-01
 cg2d: Sum(rhs),rhsMax =  -1.00427040126366E-02  2.40682945078341E-01
 cg2d: Sum(rhs),rhsMax =  -1.00433574118525E-02  2.40688130203647E-01
 cg2d: Sum(rhs),rhsMax =  -1.00440107862663E-02  2.40693313792957E-01
 cg2d: Sum(rhs),rhsMax =  -1.00446641351542E-02  2.40698495843929E-01
 cg2d: Sum(rhs),rhsMax =  -1.00453174590393E-02  2.40703676354235E-01
 cg2d: Sum(rhs),rhsMax =  -1.00459707575869E-02  2.40708855321543E-01
 cg2d: Sum(rhs),rhsMax =  -1.00466240311315E-02  2.40714032743541E-01
 cg2d: Sum(rhs),rhsMax =  -1.00472772792056E-02  2.40719208617897E-01
 cg2d: Sum(rhs),rhsMax =  -1.00479305018770E-02  2.40724382942317E-01
 cg2d: Sum(rhs),rhsMax =  -1.00485836991245E-02  2.40729555714495E-01
 cg2d: Sum(rhs),rhsMax =  -1.00492368715565E-02  2.40734726932126E-01
 cg2d: Sum(rhs),rhsMax =  -1.00498900179731E-02  2.40739896592923E-01
 cg2d: Sum(rhs),rhsMax =  -1.00505431393403E-02  2.40745064694601E-01
 cg2d: Sum(rhs),rhsMax =  -1.00511962348419E-02  2.40750231234883E-01
 cg2d: Sum(rhs),rhsMax =  -1.00518493051800E-02  2.40755396211490E-01
 cg2d: Sum(rhs),rhsMax =  -1.00525023497045E-02  2.40760559622154E-01
 cg2d: Sum(rhs),rhsMax =  -1.00531553684799E-02  2.40765721464616E-01
 cg2d: Sum(rhs),rhsMax =  -1.00538083622564E-02  2.40770881736619E-01
 cg2d: Sum(rhs),rhsMax =  -1.00544613297460E-02  2.40776040435912E-01
 cg2d: Sum(rhs),rhsMax =  -1.00551142716575E-02  2.40781197560250E-01
 cg2d: Sum(rhs),rhsMax =  -1.00557671875131E-02  2.40786353107397E-01
 cg2d: Sum(rhs),rhsMax =  -1.00564200775101E-02  2.40791507075120E-01
 cg2d: Sum(rhs),rhsMax =  -1.00570729417036E-02  2.40796659461195E-01
 cg2d: Sum(rhs),rhsMax =  -1.00577257800665E-02  2.40801810263396E-01
 cg2d: Sum(rhs),rhsMax =  -1.00583785925404E-02  2.40806959479513E-01
 cg2d: Sum(rhs),rhsMax =  -1.00590313782951E-02  2.40812107107337E-01
 cg2d: Sum(rhs),rhsMax =  -1.00596841384939E-02  2.40817253144666E-01
 cg2d: Sum(rhs),rhsMax =  -1.00603368723886E-02  2.40822397589305E-01
 cg2d: Sum(rhs),rhsMax =  -1.00609895797873E-02  2.40827540439057E-01
 cg2d: Sum(rhs),rhsMax =  -1.00616422607688E-02  2.40832681691746E-01
 cg2d: Sum(rhs),rhsMax =  -1.00622949157959E-02  2.40837821345193E-01
 cg2d: Sum(rhs),rhsMax =  -1.00629475441167E-02  2.40842959397221E-01
 cg2d: Sum(rhs),rhsMax =  -1.00636001458029E-02  2.40848095845669E-01
 cg2d: Sum(rhs),rhsMax =  -1.00642527209903E-02  2.40853230688374E-01
 cg2d: Sum(rhs),rhsMax =  -1.00649052692929E-02  2.40858363923180E-01
 cg2d: Sum(rhs),rhsMax =  -1.00655577908256E-02  2.40863495547945E-01
 cg2d: Sum(rhs),rhsMax =  -1.00662102858502E-02  2.40868625560522E-01
 cg2d: Sum(rhs),rhsMax =  -1.00668627542689E-02  2.40873753958777E-01
 cg2d: Sum(rhs),rhsMax =  -1.00675151952374E-02  2.40878880740583E-01
 cg2d: Sum(rhs),rhsMax =  -1.00681676091635E-02  2.40884005903812E-01
 cg2d: Sum(rhs),rhsMax =  -1.00688199962907E-02  2.40889129446349E-01
 cg2d: Sum(rhs),rhsMax =  -1.00694723563824E-02  2.40894251366083E-01
 cg2d: Sum(rhs),rhsMax =  -1.00701246882496E-02  2.40899371660905E-01
 cg2d: Sum(rhs),rhsMax =  -1.00707769934682E-02  2.40904490328721E-01
 cg2d: Sum(rhs),rhsMax =  -1.00714292706559E-02  2.40909607367431E-01
 cg2d: Sum(rhs),rhsMax =  -1.00720815202725E-02  2.40914722774959E-01
 cg2d: Sum(rhs),rhsMax =  -1.00727337427516E-02  2.40919836549216E-01
 cg2d: Sum(rhs),rhsMax =  -1.00733859370522E-02  2.40924948688131E-01
 cg2d: Sum(rhs),rhsMax =  -1.00740381038660E-02  2.40930059189634E-01
 cg2d: Sum(rhs),rhsMax =  -1.00746902427680E-02  2.40935168051660E-01
 cg2d: Sum(rhs),rhsMax =  -1.00753423532409E-02  2.40940275272156E-01
 cg2d: Sum(rhs),rhsMax =  -1.00759944360131E-02  2.40945380849073E-01
 cg2d: Sum(rhs),rhsMax =  -1.00766464902023E-02  2.40950484780365E-01
 cg2d: Sum(rhs),rhsMax =  -1.00772985158840E-02  2.40955587063996E-01
 cg2d: Sum(rhs),rhsMax =  -1.00779505133893E-02  2.40960687697934E-01
 cg2d: Sum(rhs),rhsMax =  -1.00786024820109E-02  2.40965786680152E-01
 cg2d: Sum(rhs),rhsMax =  -1.00792544219730E-02  2.40970884008634E-01
 cg2d: Sum(rhs),rhsMax =  -1.00799063331581E-02  2.40975979681364E-01
 cg2d: Sum(rhs),rhsMax =  -1.00805582150974E-02  2.40981073696338E-01
 cg2d: Sum(rhs),rhsMax =  -1.00812100680178E-02  2.40986166051554E-01
 cg2d: Sum(rhs),rhsMax =  -1.00818618923516E-02  2.40991256745017E-01
 cg2d: Sum(rhs),rhsMax =  -1.00825136869000E-02  2.40996345774735E-01
 cg2d: Sum(rhs),rhsMax =  -1.00831654523835E-02  2.41001433138743E-01
 cg2d: Sum(rhs),rhsMax =  -1.00838171880962E-02  2.41006518835052E-01
 cg2d: Sum(rhs),rhsMax =  -1.00844688940785E-02  2.41011602861691E-01
 cg2d: Sum(rhs),rhsMax =  -1.00851205706868E-02  2.41016685216700E-01
 cg2d: Sum(rhs),rhsMax =  -1.00857722172381E-02  2.41021765898123E-01
(PID.TID 0000.0001)      cg2d_init_res =   2.74809163321585E-04
(PID.TID 0000.0001)      cg2d_iters(min,last) =      -1      66
(PID.TID 0000.0001)      cg2d_last_res =   9.42823368122797E-08
(PID.TID 0000.0001) // =======================================================
(PID.TID 0000.0001) // Begin MONITOR dynamic field statistics
(PID.TID 0000.0001) // =======================================================
(PID.TID 0000.0001) %MON time_tsnumber                =                 21456
(PID.TID 0000.0001) %MON time_secondsf                =   2.5747200000000E+07
(PID.TID 0000.0001) %MON dynstat_eta_max              =   4.1785309613450E-01
(PID.TID 0000.0001) %MON dynstat_eta_min              =  -1.2634907002034E-01
(PID.TID 0000.0001) %MON dynstat_eta_mean             =   1.2149266060986E-05
(PID.TID 0000.0001) %MON dynstat_eta_sd               =   1.5753890984374E-01
(PID.TID 0000.0001) %MON dynstat_eta_del2             =   3.9656413622646E-05
(PID.TID 0000.0001) %MON dynstat_uvel_max             =   1.8570797968286E-01
(PID.TID 0000.0001) %MON dynstat_uvel_min             =  -1.5603155694151E-01
(PID.TID 0000.0001) %MON dynstat_uvel_mean            =   3.5052092955290E-09
(PID.TID 0000.0001) %MON dynstat_uvel_sd              =   6.3991780246690E-02
(PID.TID 0000.0001) %MON dynstat_uvel_del2            =   7.8956293837839E-05
(PID.TID 0000.0001) %MON dynstat_vvel_max             =   1.3800773239124E-01
(PID.TID 0000.0001) %MON dynstat_vvel_min             =  -1.6453937428718E-01
(PID.TID 0000.0001) %MON dynstat_vvel_mean            =   9.5209072654532E-08
(PID.TID 0000.0001) %MON dynstat_vvel_sd              =   5.9200339157384E-02
(PID.TID 0000.0001) %MON dynstat_vvel_del2            =   3.7670573262555E-05
(PID.TID 0000.0001) %MON dynstat_wvel_max             =   1.1039786650654E-08
(PID.TID 0000.0001) %MON dynstat_wvel_min             =  -4.2272735282313E-09
(PID.TID 0000.0001) %MON dynstat_wvel_mean            =   2.5697974782209E-20
(PID.TID 0000.0001) %MON dynstat_wvel_sd              =   3.6654566868244E-09
(PID.TID 0000.0001) %MON dynstat_wvel_del2            =   1.0856367210488E-12
(PID.TID 0000.0001) %MON dynstat_theta_max            =   2.0000000000000E+01
(PID.TID 0000.0001) %MON dynstat_theta_min            =   2.0000000000000E+01
(PID.TID 0000.0001) %MON dynstat_theta_mean           =   2.0000000000000E+01
(PID.TID 0000.0001) %MON dynstat_theta_sd             =   3.8014036363165E-13
(PID.TID 0000.0001) %MON dynstat_theta_del2           =   0.0000000000000E+00
(PID.TID 0000.0001) %MON dynstat_salt_max             =   3.0000000000000E+01
(PID.TID 0000.0001) %MON dynstat_salt_min             =   3.0000000000000E+01
(PID.TID 0000.0001) %MON dynstat_salt_mean            =   2.9999999999999E+01
(PID.TID 0000.0001) %MON dynstat_salt_sd              =   5.5777604757167E-13
(PID.TID 0000.0001) %MON dynstat_salt_del2            =   0.0000000000000E+00
(PID.TID 0000.0001) %MON trAdv_CFL_u_max              =   1.1141928073016E-02
(PID.TID 0000.0001) %MON trAdv_CFL_v_max              =   9.8592875090344E-03
(PID.TID 0000.0001) %MON trAdv_CFL_w_max              =   2.9109770619951E-09
(PID.TID 0000.0001) %MON advcfl_uvel_max              =   1.1142478780971E-02
(PID.TID 0000.0001) %MON advcfl_vvel_max              =   9.8723624572309E-03
(PID.TID 0000.0001) %MON advcfl_wvel_max              =   5.2990975923138E-09
(PID.TID 0000.0001) %MON advcfl_W_hf_max              =   0.0000000000000E+00
(PID.TID 0000.0001) %MON pe_b_mean                    =   2.5444795675783E-05
(PID.TID 0000.0001) %MON ke_max                       =   1.7274220663143E-02
(PID.TID 0000.0001) %MON ke_mean                      =   3.7299407261526E-03
(PID.TID 0000.0001) %MON ke_vol                       =   6.8893493896486E+15
(PID.TID 0000.0001) %MON vort_r_min                   =  -1.2454318621494E-06
(PID.TID 0000.0001) %MON vort_r_max                   =   3.9566172521796E-06
(PID.TID 0000.0001) %MON vort_a_mean                  =   1.0600000000000E-04
(PID.TID 0000.0001) %MON vort_a_sd                    =   3.5888781385275E-06
(PID.TID 0000.0001) %MON vort_p_mean                  =   1.1652272308690E-04
(PID.TID 0000.0001) %MON vort_p_sd                    =   4.1793020559377E-05
(PID.TID 0000.0001) %MON surfExpan_theta_mean         =   5.1397913949616E-19
(PID.TID 0000.0001) %MON surfExpan_salt_mean          =   7.7097249818871E-19
(PID.TID 0000.0001) // =======================================================
(PID.TID 0000.0001) // End MONITOR dynamic field statistics
(PID.TID 0000.0001) // =======================================================
 cg2d: Sum(rhs),rhsMax =  -1.00864238335529E-02  2.41026844904010E-01
 cg2d: Sum(rhs),rhsMax =  -1.00870754199802E-02  2.41031922232419E-01
 cg2d: Sum(rhs),rhsMax =  -1.00877269761453E-02  2.41036997881403E-01
 cg2d: Sum(rhs),rhsMax =  -1.00883785017269E-02  2.41042071849043E-01
 cg2d: Sum(rhs),rhsMax =  -1.00890299968545E-02  2.41047144133401E-01
 cg2d: Sum(rhs),rhsMax =  -1.00896814608351E-02  2.41052214732567E-01
 cg2d: Sum(rhs),rhsMax =  -1.00903328943968E-02  2.41057283644627E-01
 cg2d: Sum(rhs),rhsMax =  -1.00909842968983E-02  2.41062350867667E-01
 cg2d: Sum(rhs),rhsMax =  -1.00916356678543E-02  2.41067416399797E-01
 cg2d: Sum(rhs),rhsMax =  -1.00922870079121E-02  2.41072480239117E-01
 cg2d: Sum(rhs),rhsMax =  -1.00929383167715E-02  2.41077542383742E-01
 cg2d: Sum(rhs),rhsMax =  -1.00935895938312E-02  2.41082602831786E-01
 cg2d: Sum(rhs),rhsMax =  -1.00942408388649E-02  2.41087661581382E-01
 cg2d: Sum(rhs),rhsMax =  -1.00948920524831E-02  2.41092718630649E-01
 cg2d: Sum(rhs),rhsMax =  -1.00955432335371E-02  2.41097773977737E-01
 cg2d: Sum(rhs),rhsMax =  -1.00961943824647E-02  2.41102827620787E-01
 cg2d: Sum(rhs),rhsMax =  -1.00968454993457E-02  2.41107879557947E-01
 cg2d: Sum(rhs),rhsMax =  -1.00974965834899E-02  2.41112929787376E-01
 cg2d: Sum(rhs),rhsMax =  -1.00981476348116E-02  2.41117978307232E-01
 cg2d: Sum(rhs),rhsMax =  -1.00987986533343E-02  2.41123025115694E-01
 cg2d: Sum(rhs),rhsMax =  -1.00994496389309E-02  2.41128070210929E-01
 cg2d: Sum(rhs),rhsMax =  -1.01001005912641E-02  2.41133113591121E-01
 cg2d: Sum(rhs),rhsMax =  -1.01007515100876E-02  2.41138155254465E-01
 cg2d: Sum(rhs),rhsMax =  -1.01014023951932E-02  2.41143195199141E-01
 cg2d: Sum(rhs),rhsMax =  -1.01020532465938E-02  2.41148233423369E-01
 cg2d: Sum(rhs),rhsMax =  -1.01027040639012E-02  2.41153269925346E-01
 cg2d: Sum(rhs),rhsMax =  -1.01033548476634E-02  2.41158304703287E-01
 cg2d: Sum(rhs),rhsMax =  -1.01040055967330E-02  2.41163337755415E-01
 cg2d: Sum(rhs),rhsMax =  -1.01046563117025E-02  2.41168369079958E-01
 cg2d: Sum(rhs),rhsMax =  -1.01053069919465E-02  2.41173398675138E-01
 cg2d: Sum(rhs),rhsMax =  -1.01059576373163E-02  2.41178426539210E-01
 cg2d: Sum(rhs),rhsMax =  -1.01066082474548E-02  2.41183452670415E-01
 cg2d: Sum(rhs),rhsMax =  -1.01072588224958E-02  2.41188477067004E-01
 cg2d: Sum(rhs),rhsMax =  -1.01079093622627E-02  2.41193499727235E-01
 cg2d: Sum(rhs),rhsMax =  -1.01085598660860E-02  2.41198520649379E-01
 cg2d: Sum(rhs),rhsMax =  -1.01092103343491E-02  2.41203539831703E-01
 cg2d: Sum(rhs),rhsMax =  -1.01098607661696E-02  2.41208557272486E-01
 cg2d: Sum(rhs),rhsMax =  -1.01105111622433E-02  2.41213572970015E-01
 cg2d: Sum(rhs),rhsMax =  -1.01111615216889E-02  2.41218586922577E-01
 cg2d: Sum(rhs),rhsMax =  -1.01118118445692E-02  2.41223599128472E-01
 cg2d: Sum(rhs),rhsMax =  -1.01124621305407E-02  2.41228609586008E-01
 cg2d: Sum(rhs),rhsMax =  -1.01131123790966E-02  2.41233618293493E-01
 cg2d: Sum(rhs),rhsMax =  -1.01137625906257E-02  2.41238625249244E-01
 cg2d: Sum(rhs),rhsMax =  -1.01144127641851E-02  2.41243630451584E-01
 cg2d: Sum(rhs),rhsMax =  -1.01150629006295E-02  2.41248633898846E-01
 cg2d: Sum(rhs),rhsMax =  -1.01157129987579E-02  2.41253635589362E-01
 cg2d: Sum(rhs),rhsMax =  -1.01163630587673E-02  2.41258635521478E-01
 cg2d: Sum(rhs),rhsMax =  -1.01170130804141E-02  2.41263633693542E-01
 cg2d: Sum(rhs),rhsMax =  -1.01176630633265E-02  2.41268630103916E-01
 cg2d: Sum(rhs),rhsMax =  -1.01183130076569E-02  2.41273624750954E-01
 cg2d: Sum(rhs),rhsMax =  -1.01189629125645E-02  2.41278617633029E-01
 cg2d: Sum(rhs),rhsMax =  -1.01196127780985E-02  2.41283608748521E-01
 cg2d: Sum(rhs),rhsMax =  -1.01202626045408E-02  2.41288598095806E-01
 cg2d: Sum(rhs),rhsMax =  -1.01209123913091E-02  2.41293585673275E-01
 cg2d: Sum(rhs),rhsMax =  -1.01215621371625E-02  2.41298571479325E-01
 cg2d: Sum(rhs),rhsMax =  -1.01222118428042E-02  2.41303555512353E-01
 cg2d: Sum(rhs),rhsMax =  -1.01228615083491E-02  2.41308537770773E-01
 cg2d: Sum(rhs),rhsMax =  -1.01235111329112E-02  2.41313518252999E-01
 cg2d: Sum(rhs),rhsMax =  -1.01241607162378E-02  2.41318496957447E-01
 cg2d: Sum(rhs),rhsMax =  -1.01248102584177E-02  2.41323473882550E-01
 cg2d: Sum(rhs),rhsMax =  -1.01254597590025E-02  2.41328449026744E-01
 cg2d: Sum(rhs),rhsMax =  -1.01261092174443E-02  2.41333422388464E-01
 cg2d: Sum(rhs),rhsMax =  -1.01267586339739E-02  2.41338393966165E-01
 cg2d: Sum(rhs),rhsMax =  -1.01274080082728E-02  2.41343363758292E-01
 cg2d: Sum(rhs),rhsMax =  -1.01280573398863E-02  2.41348331763317E-01
 cg2d: Sum(rhs),rhsMax =  -1.01287066286611E-02  2.41353297979700E-01
 cg2d: Sum(rhs),rhsMax =  -1.01293558743873E-02  2.41358262405914E-01
 cg2d: Sum(rhs),rhsMax =  -1.01300050767982E-02  2.41363225040450E-01
 cg2d: Sum(rhs),rhsMax =  -1.01306542348707E-02  2.41368185881781E-01
 cg2d: Sum(rhs),rhsMax =  -1.01313033493042E-02  2.41373144928409E-01
 cg2d: Sum(rhs),rhsMax =  -1.01319524194897E-02  2.41378102178832E-01
 cg2d: Sum(rhs),rhsMax =  -1.01326014450564E-02  2.41383057631560E-01
(PID.TID 0000.0001)      cg2d_init_res =   2.73713940632297E-04
(PID.TID 0000.0001)      cg2d_iters(min,last) =      -1      66
(PID.TID 0000.0001)      cg2d_last_res =   9.54154614306325E-08
(PID.TID 0000.0001) // =======================================================
(PID.TID 0000.0001) // Begin MONITOR dynamic field statistics
(PID.TID 0000.0001) // =======================================================
(PID.TID 0000.0001) %MON time_tsnumber                =                 21528
(PID.TID 0000.0001) %MON time_secondsf                =   2.5833600000000E+07
(PID.TID 0000.0001) %MON dynstat_eta_max              =   4.1880303603477E-01
(PID.TID 0000.0001) %MON dynstat_eta_min              =  -1.2650656119255E-01
(PID.TID 0000.0001) %MON dynstat_eta_mean             =   1.2223959044263E-05
(PID.TID 0000.0001) %MON dynstat_eta_sd               =   1.5784437570539E-01
(PID.TID 0000.0001) %MON dynstat_eta_del2             =   3.9728691747976E-05
(PID.TID 0000.0001) %MON dynstat_uvel_max             =   1.8601453245483E-01
(PID.TID 0000.0001) %MON dynstat_uvel_min             =  -1.5637296368239E-01
(PID.TID 0000.0001) %MON dynstat_uvel_mean            =   6.5724017005158E-09
(PID.TID 0000.0001) %MON dynstat_uvel_sd              =   6.4116206053530E-02
(PID.TID 0000.0001) %MON dynstat_uvel_del2            =   7.9041729340952E-05
(PID.TID 0000.0001) %MON dynstat_vvel_max             =   1.3833851776736E-01
(PID.TID 0000.0001) %MON dynstat_vvel_min             =  -1.6480442860479E-01
(PID.TID 0000.0001) %MON dynstat_vvel_mean            =   9.3874041512243E-08
(PID.TID 0000.0001) %MON dynstat_vvel_sd              =   5.9316699798202E-02
(PID.TID 0000.0001) %MON dynstat_vvel_del2            =   3.7648358340533E-05
(PID.TID 0000.0001) %MON dynstat_wvel_max             =   1.1015098518328E-08
(PID.TID 0000.0001) %MON dynstat_wvel_min             =  -4.2102405129117E-09
(PID.TID 0000.0001) %MON dynstat_wvel_mean            =  -1.2309859206046E-21
(PID.TID 0000.0001) %MON dynstat_wvel_sd              =   3.6555719041530E-09
(PID.TID 0000.0001) %MON dynstat_wvel_del2            =   1.0850861167180E-12
(PID.TID 0000.0001) %MON dynstat_theta_max            =   2.0000000000000E+01
(PID.TID 0000.0001) %MON dynstat_theta_min            =   2.0000000000000E+01
(PID.TID 0000.0001) %MON dynstat_theta_mean           =   2.0000000000000E+01
(PID.TID 0000.0001) %MON dynstat_theta_sd             =   3.8014036363165E-13
(PID.TID 0000.0001) %MON dynstat_theta_del2           =   0.0000000000000E+00
(PID.TID 0000.0001) %MON dynstat_salt_max             =   3.0000000000000E+01
(PID.TID 0000.0001) %MON dynstat_salt_min             =   3.0000000000000E+01
(PID.TID 0000.0001) %MON dynstat_salt_mean            =   2.9999999999999E+01
(PID.TID 0000.0001) %MON dynstat_salt_sd              =   5.5777604757167E-13
(PID.TID 0000.0001) %MON dynstat_salt_del2            =   0.0000000000000E+00
(PID.TID 0000.0001) %MON trAdv_CFL_u_max              =   1.1160322826878E-02
(PID.TID 0000.0001) %MON trAdv_CFL_v_max              =   9.8751678481728E-03
(PID.TID 0000.0001) %MON trAdv_CFL_w_max              =   2.9044739116028E-09
(PID.TID 0000.0001) %MON advcfl_uvel_max              =   1.1160871947290E-02
(PID.TID 0000.0001) %MON advcfl_vvel_max              =   9.8882657162874E-03
(PID.TID 0000.0001) %MON advcfl_wvel_max              =   5.2872472887975E-09
(PID.TID 0000.0001) %MON advcfl_W_hf_max              =   0.0000000000000E+00
(PID.TID 0000.0001) %MON pe_b_mean                    =   2.5543565585353E-05
(PID.TID 0000.0001) %MON ke_max                       =   1.7330773086698E-02
(PID.TID 0000.0001) %MON ke_mean                      =   3.7445327024030E-03
(PID.TID 0000.0001) %MON ke_vol                       =   6.8893493896486E+15
(PID.TID 0000.0001) %MON vort_r_min                   =  -1.2491552884250E-06
(PID.TID 0000.0001) %MON vort_r_max                   =   3.9630100420383E-06
(PID.TID 0000.0001) %MON vort_a_mean                  =   1.0600000000000E-04
(PID.TID 0000.0001) %MON vort_a_sd                    =   3.5891039699092E-06
(PID.TID 0000.0001) %MON vort_p_mean                  =   1.1652272308690E-04
(PID.TID 0000.0001) %MON vort_p_sd                    =   4.1793037706558E-05
(PID.TID 0000.0001) %MON surfExpan_theta_mean         =  -2.4599147410400E-20
(PID.TID 0000.0001) %MON surfExpan_salt_mean          =  -3.6897457928515E-20
(PID.TID 0000.0001) // =======================================================
(PID.TID 0000.0001) // End MONITOR dynamic field statistics
(PID.TID 0000.0001) // =======================================================
 cg2d: Sum(rhs),rhsMax =  -1.01332504259532E-02  2.41388011285100E-01
 cg2d: Sum(rhs),rhsMax =  -1.01338993612917E-02  2.41392963137981E-01
 cg2d: Sum(rhs),rhsMax =  -1.01345482516204E-02  2.41397913188715E-01
 cg2d: Sum(rhs),rhsMax =  -1.01351970962726E-02  2.41402861435855E-01
 cg2d: Sum(rhs),rhsMax =  -1.01358458945963E-02  2.41407807877927E-01
 cg2d: Sum(rhs),rhsMax =  -1.01364946467589E-02  2.41412752513486E-01
 cg2d: Sum(rhs),rhsMax =  -1.01371433523544E-02  2.41417695341078E-01
 cg2d: Sum(rhs),rhsMax =  -1.01377920110888E-02  2.41422636359266E-01
 cg2d: Sum(rhs),rhsMax =  -1.01384406224785E-02  2.41427575566617E-01
 cg2d: Sum(rhs),rhsMax =  -1.01390891865655E-02  2.41432512961702E-01
 cg2d: Sum(rhs),rhsMax =  -1.01397377026605E-02  2.41437448543110E-01
 cg2d: Sum(rhs),rhsMax =  -1.01403861705986E-02  2.41442382309411E-01
 cg2d: Sum(rhs),rhsMax =  -1.01410345904649E-02  2.41447314259213E-01
 cg2d: Sum(rhs),rhsMax =  -1.01416829612456E-02  2.41452244391109E-01
 cg2d: Sum(rhs),rhsMax =  -1.01423312825837E-02  2.41457172703706E-01
 cg2d: Sum(rhs),rhsMax =  -1.01429795550426E-02  2.41462099195618E-01
 cg2d: Sum(rhs),rhsMax =  -1.01436277779068E-02  2.41467023865460E-01
 cg2d: Sum(rhs),rhsMax =  -1.01442759504739E-02  2.41471946711865E-01
 cg2d: Sum(rhs),rhsMax =  -1.01449240723271E-02  2.41476867733465E-01
 cg2d: Sum(rhs),rhsMax =  -1.01455721434832E-02  2.41481786928899E-01
 cg2d: Sum(rhs),rhsMax =  -1.01462201642774E-02  2.41486704296809E-01
 cg2d: Sum(rhs),rhsMax =  -1.01468681329970E-02  2.41491619835853E-01
 cg2d: Sum(rhs),rhsMax =  -1.01475160503911E-02  2.41496533544693E-01
 cg2d: Sum(rhs),rhsMax =  -1.01481639155582E-02  2.41501445421989E-01
 cg2d: Sum(rhs),rhsMax =  -1.01488117281903E-02  2.41506355466416E-01
 cg2d: Sum(rhs),rhsMax =  -1.01494594878148E-02  2.41511263676656E-01
 cg2d: Sum(rhs),rhsMax =  -1.01501071948056E-02  2.41516170051397E-01
 cg2d: Sum(rhs),rhsMax =  -1.01507548485466E-02  2.41521074589326E-01
 cg2d: Sum(rhs),rhsMax =  -1.01514024480282E-02  2.41525977289150E-01
 cg2d: Sum(rhs),rhsMax =  -1.01520499932384E-02  2.41530878149571E-01
 cg2d: Sum(rhs),rhsMax =  -1.01526974843326E-02  2.41535777169304E-01
 cg2d: Sum(rhs),rhsMax =  -1.01533449203022E-02  2.41540674347063E-01
 cg2d: Sum(rhs),rhsMax =  -1.01539923009237E-02  2.41545569681592E-01
 cg2d: Sum(rhs),rhsMax =  -1.01546396262048E-02  2.41550463171603E-01
 cg2d: Sum(rhs),rhsMax =  -1.01552868952642E-02  2.41555354815853E-01
 cg2d: Sum(rhs),rhsMax =  -1.01559341082109E-02  2.41560244613079E-01
 cg2d: Sum(rhs),rhsMax =  -1.01565812641727E-02  2.41565132562035E-01
 cg2d: Sum(rhs),rhsMax =  -1.01572283630572E-02  2.41570018661490E-01
 cg2d: Sum(rhs),rhsMax =  -1.01578754038954E-02  2.41574902910201E-01
 cg2d: Sum(rhs),rhsMax =  -1.01585223876671E-02  2.41579785306951E-01
 cg2d: Sum(rhs),rhsMax =  -1.01591693129919E-02  2.41584665850511E-01
 cg2d: Sum(rhs),rhsMax =  -1.01598161793842E-02  2.41589544539682E-01
 cg2d: Sum(rhs),rhsMax =  -1.01604629866395E-02  2.41594421373243E-01
 cg2d: Sum(rhs),rhsMax =  -1.01611097347935E-02  2.41599296350000E-01
 cg2d: Sum(rhs),rhsMax =  -1.01617564226376E-02  2.41604169468764E-01
 cg2d: Sum(rhs),rhsMax =  -1.01624030506628E-02  2.41609040728346E-01
 cg2d: Sum(rhs),rhsMax =  -1.01630496179536E-02  2.41613910127570E-01
 cg2d: Sum(rhs),rhsMax =  -1.01636961245257E-02  2.41618777665262E-01
 cg2d: Sum(rhs),rhsMax =  -1.01643425691403E-02  2.41623643340251E-01
 cg2d: Sum(rhs),rhsMax =  -1.01649889519515E-02  2.41628507151390E-01
 cg2d: Sum(rhs),rhsMax =  -1.01656352729388E-02  2.41633369097519E-01
 cg2d: Sum(rhs),rhsMax =  -1.01662815310142E-02  2.41638229177496E-01
 cg2d: Sum(rhs),rhsMax =  -1.01669277258395E-02  2.41643087390185E-01
 cg2d: Sum(rhs),rhsMax =  -1.01675738573961E-02  2.41647943734446E-01
 cg2d: Sum(rhs),rhsMax =  -1.01682199247842E-02  2.41652798209163E-01
 cg2d: Sum(rhs),rhsMax =  -1.01688659279837E-02  2.41657650813214E-01
 cg2d: Sum(rhs),rhsMax =  -1.01695118666529E-02  2.41662501545489E-01
 cg2d: Sum(rhs),rhsMax =  -1.01701577395914E-02  2.41667350404875E-01
 cg2d: Sum(rhs),rhsMax =  -1.01708035467593E-02  2.41672197390293E-01
 cg2d: Sum(rhs),rhsMax =  -1.01714492882188E-02  2.41677042500631E-01
 cg2d: Sum(rhs),rhsMax =  -1.01720949630308E-02  2.41681885734826E-01
 cg2d: Sum(rhs),rhsMax =  -1.01727405708143E-02  2.41686727091786E-01
 cg2d: Sum(rhs),rhsMax =  -1.01733861111763E-02  2.41691566570447E-01
 cg2d: Sum(rhs),rhsMax =  -1.01740315839136E-02  2.41696404169738E-01
 cg2d: Sum(rhs),rhsMax =  -1.01746769881363E-02  2.41701239888610E-01
 cg2d: Sum(rhs),rhsMax =  -1.01753223238626E-02  2.41706073726006E-01
 cg2d: Sum(rhs),rhsMax =  -1.01759675900012E-02  2.41710905680892E-01
 cg2d: Sum(rhs),rhsMax =  -1.01766127864641E-02  2.41715735752224E-01
 cg2d: Sum(rhs),rhsMax =  -1.01772579130203E-02  2.41720563938971E-01
 cg2d: Sum(rhs),rhsMax =  -1.01779029690340E-02  2.41725390240116E-01
 cg2d: Sum(rhs),rhsMax =  -1.01785479539928E-02  2.41730214654645E-01
 cg2d: Sum(rhs),rhsMax =  -1.01791928672790E-02  2.41735037181540E-01
(PID.TID 0000.0001)      cg2d_init_res =   2.72677407628214E-04
(PID.TID 0000.0001)      cg2d_iters(min,last) =      -1      66
(PID.TID 0000.0001)      cg2d_last_res =   9.68906358580640E-08
(PID.TID 0000.0001) // =======================================================
(PID.TID 0000.0001) // Begin MONITOR dynamic field statistics
(PID.TID 0000.0001) // =======================================================
(PID.TID 0000.0001) %MON time_tsnumber                =                 21600
(PID.TID 0000.0001) %MON time_secondsf                =   2.5920000000000E+07
(PID.TID 0000.0001) %MON dynstat_eta_max              =   4.1975114394391E-01
(PID.TID 0000.0001) %MON dynstat_eta_min              =  -1.2666317457365E-01
(PID.TID 0000.0001) %MON dynstat_eta_mean             =   1.2298057816972E-05
(PID.TID 0000.0001) %MON dynstat_eta_sd               =   1.5814883452365E-01
(PID.TID 0000.0001) %MON dynstat_eta_del2             =   3.9800760198928E-05
(PID.TID 0000.0001) %MON dynstat_uvel_max             =   1.8631810868169E-01
(PID.TID 0000.0001) %MON dynstat_uvel_min             =  -1.5670580464002E-01
(PID.TID 0000.0001) %MON dynstat_uvel_mean            =   9.1726568395276E-09
(PID.TID 0000.0001) %MON dynstat_uvel_sd              =   6.4239816645075E-02
(PID.TID 0000.0001) %MON dynstat_uvel_del2            =   7.9125986916063E-05
(PID.TID 0000.0001) %MON dynstat_vvel_max             =   1.3866816781929E-01
(PID.TID 0000.0001) %MON dynstat_vvel_min             =  -1.6507242625209E-01
(PID.TID 0000.0001) %MON dynstat_vvel_mean            =   9.2228133086126E-08
(PID.TID 0000.0001) %MON dynstat_vvel_sd              =   5.9433065043580E-02
(PID.TID 0000.0001) %MON dynstat_vvel_del2            =   3.7624918811405E-05
(PID.TID 0000.0001) %MON dynstat_wvel_max             =   1.0988655934780E-08
(PID.TID 0000.0001) %MON dynstat_wvel_min             =  -4.2258518759627E-09
(PID.TID 0000.0001) %MON dynstat_wvel_mean            =   1.6201299028277E-20
(PID.TID 0000.0001) %MON dynstat_wvel_sd              =   3.6453459786162E-09
(PID.TID 0000.0001) %MON dynstat_wvel_del2            =   1.0849509707411E-12
(PID.TID 0000.0001) %MON dynstat_theta_max            =   2.0000000000000E+01
(PID.TID 0000.0001) %MON dynstat_theta_min            =   2.0000000000000E+01
(PID.TID 0000.0001) %MON dynstat_theta_mean           =   2.0000000000000E+01
(PID.TID 0000.0001) %MON dynstat_theta_sd             =   3.8014036363165E-13
(PID.TID 0000.0001) %MON dynstat_theta_del2           =   0.0000000000000E+00
(PID.TID 0000.0001) %MON dynstat_salt_max             =   3.0000000000000E+01
(PID.TID 0000.0001) %MON dynstat_salt_min             =   3.0000000000000E+01
(PID.TID 0000.0001) %MON dynstat_salt_mean            =   2.9999999999999E+01
(PID.TID 0000.0001) %MON dynstat_salt_sd              =   5.5777604757167E-13
(PID.TID 0000.0001) %MON dynstat_salt_del2            =   0.0000000000000E+00
(PID.TID 0000.0001) %MON trAdv_CFL_u_max              =   1.1178539787772E-02
(PID.TID 0000.0001) %MON trAdv_CFL_v_max              =   9.8912240985717E-03
(PID.TID 0000.0001) %MON trAdv_CFL_w_max              =   2.8975080106436E-09
(PID.TID 0000.0001) %MON advcfl_uvel_max              =   1.1179086520901E-02
(PID.TID 0000.0001) %MON advcfl_vvel_max              =   9.9043455751255E-03
(PID.TID 0000.0001) %MON advcfl_wvel_max              =   5.2745548486942E-09
(PID.TID 0000.0001) %MON advcfl_W_hf_max              =   0.0000000000000E+00
(PID.TID 0000.0001) %MON pe_b_mean                    =   2.5642200258566E-05
(PID.TID 0000.0001) %MON ke_max                       =   1.7386764164080E-02
(PID.TID 0000.0001) %MON ke_mean                      =   3.7591020285889E-03
(PID.TID 0000.0001) %MON ke_vol                       =   6.8893493896486E+15
(PID.TID 0000.0001) %MON vort_r_min                   =  -1.2528726517778E-06
(PID.TID 0000.0001) %MON vort_r_max                   =   3.9693424116206E-06
(PID.TID 0000.0001) %MON vort_a_mean                  =   1.0600000000000E-04
(PID.TID 0000.0001) %MON vort_a_sd                    =   3.5893279844488E-06
(PID.TID 0000.0001) %MON vort_p_mean                  =   1.1652272308690E-04
(PID.TID 0000.0001) %MON vort_p_sd                    =   4.1793054341735E-05
(PID.TID 0000.0001) %MON surfExpan_theta_mean         =   3.2408138271754E-19
(PID.TID 0000.0001) %MON surfExpan_salt_mean          =   4.8612207345952E-19
(PID.TID 0000.0001) // =======================================================
(PID.TID 0000.0001) // End MONITOR dynamic field statistics
(PID.TID 0000.0001) // =======================================================
(PID.TID 0000.0001) %CHECKPOINT     21600 ckptA
(PID.TID 0000.0001)   Seconds in section "ALL                    [THE_MODEL_MAIN]":
(PID.TID 0000.0001)           User time:   151.242918870412
(PID.TID 0000.0001)         System time:  0.000000000000000E+000
(PID.TID 0000.0001)     Wall clock time:   201.585232973099
(PID.TID 0000.0001)          No. starts:           1
(PID.TID 0000.0001)           No. stops:           1
(PID.TID 0000.0001)   Seconds in section "INITIALISE_FIXED       [THE_MODEL_MAIN]":
(PID.TID 0000.0001)           User time:  1.977900043129921E-002
(PID.TID 0000.0001)         System time:  0.000000000000000E+000
(PID.TID 0000.0001)     Wall clock time:  0.188180923461914
(PID.TID 0000.0001)          No. starts:           1
(PID.TID 0000.0001)           No. stops:           1
(PID.TID 0000.0001)   Seconds in section "THE_MAIN_LOOP          [THE_MODEL_MAIN]":
(PID.TID 0000.0001)           User time:   151.223102610558
(PID.TID 0000.0001)         System time:  0.000000000000000E+000
(PID.TID 0000.0001)     Wall clock time:   201.396992921829
(PID.TID 0000.0001)          No. starts:           1
(PID.TID 0000.0001)           No. stops:           1
(PID.TID 0000.0001)   Seconds in section "INITIALISE_VARIA    [THE_MAIN_LOOP]":
(PID.TID 0000.0001)           User time:  6.014000624418259E-003
(PID.TID 0000.0001)         System time:  0.000000000000000E+000
(PID.TID 0000.0001)     Wall clock time:  3.554487228393555E-002
(PID.TID 0000.0001)          No. starts:           1
(PID.TID 0000.0001)           No. stops:           1
(PID.TID 0000.0001)   Seconds in section "MAIN LOOP           [THE_MAIN_LOOP]":
(PID.TID 0000.0001)           User time:   151.217057351023
(PID.TID 0000.0001)         System time:  0.000000000000000E+000
(PID.TID 0000.0001)     Wall clock time:   201.361390829086
(PID.TID 0000.0001)          No. starts:           1
(PID.TID 0000.0001)           No. stops:           1
(PID.TID 0000.0001)   Seconds in section "MAIN_DO_LOOP        [THE_MAIN_LOOP]":
(PID.TID 0000.0001)           User time:   150.998766500503
(PID.TID 0000.0001)         System time:  0.000000000000000E+000
(PID.TID 0000.0001)     Wall clock time:   201.141960144043
(PID.TID 0000.0001)          No. starts:       21600
(PID.TID 0000.0001)           No. stops:       21600
(PID.TID 0000.0001)   Seconds in section "FORWARD_STEP        [MAIN_DO_LOOP]":
(PID.TID 0000.0001)           User time:   150.559785991907
(PID.TID 0000.0001)         System time:  0.000000000000000E+000
(PID.TID 0000.0001)     Wall clock time:   200.698031902313
(PID.TID 0000.0001)          No. starts:       21600
(PID.TID 0000.0001)           No. stops:       21600
(PID.TID 0000.0001)   Seconds in section "LOAD_FIELDS_DRIVER  [FORWARD_STEP]":
(PID.TID 0000.0001)           User time:  0.656521089375019
(PID.TID 0000.0001)         System time:  0.000000000000000E+000
(PID.TID 0000.0001)     Wall clock time:  0.662730216979980
(PID.TID 0000.0001)          No. starts:       21600
(PID.TID 0000.0001)           No. stops:       21600
(PID.TID 0000.0001)   Seconds in section "EXTERNAL_FLDS_LOAD [LOAD_FLDS_DRIVER]":
(PID.TID 0000.0001)           User time:  0.219604369252920
(PID.TID 0000.0001)         System time:  0.000000000000000E+000
(PID.TID 0000.0001)     Wall clock time:  0.220933437347412
(PID.TID 0000.0001)          No. starts:       21600
(PID.TID 0000.0001)           No. stops:       21600
(PID.TID 0000.0001)   Seconds in section "DO_ATMOSPHERIC_PHYS [FORWARD_STEP]":
(PID.TID 0000.0001)           User time:  0.219010524451733
(PID.TID 0000.0001)         System time:  0.000000000000000E+000
(PID.TID 0000.0001)     Wall clock time:  0.221593379974365
(PID.TID 0000.0001)          No. starts:       21600
(PID.TID 0000.0001)           No. stops:       21600
(PID.TID 0000.0001)   Seconds in section "DO_OCEANIC_PHYS     [FORWARD_STEP]":
(PID.TID 0000.0001)           User time:   2.74496901035309
(PID.TID 0000.0001)         System time:  0.000000000000000E+000
(PID.TID 0000.0001)     Wall clock time:   2.78112530708313
(PID.TID 0000.0001)          No. starts:       21600
(PID.TID 0000.0001)           No. stops:       21600
(PID.TID 0000.0001)   Seconds in section "THERMODYNAMICS      [FORWARD_STEP]":
(PID.TID 0000.0001)           User time:   1.34316802397370
(PID.TID 0000.0001)         System time:  0.000000000000000E+000
(PID.TID 0000.0001)     Wall clock time:   1.36152100563049
(PID.TID 0000.0001)          No. starts:       21600
(PID.TID 0000.0001)           No. stops:       21600
(PID.TID 0000.0001)   Seconds in section "DYNAMICS            [FORWARD_STEP]":
(PID.TID 0000.0001)           User time:   27.0643217451870
(PID.TID 0000.0001)         System time:  0.000000000000000E+000
(PID.TID 0000.0001)     Wall clock time:   27.3746550083160
(PID.TID 0000.0001)          No. starts:       21600
(PID.TID 0000.0001)           No. stops:       21600
(PID.TID 0000.0001)   Seconds in section "SOLVE_FOR_PRESSURE  [FORWARD_STEP]":
(PID.TID 0000.0001)           User time:   109.489461850375
(PID.TID 0000.0001)         System time:  0.000000000000000E+000
(PID.TID 0000.0001)     Wall clock time:   110.669077634811
(PID.TID 0000.0001)          No. starts:       21600
(PID.TID 0000.0001)           No. stops:       21600
(PID.TID 0000.0001)   Seconds in section "MOM_CORRECTION_STEP [FORWARD_STEP]":
(PID.TID 0000.0001)           User time:   2.05093820393085
(PID.TID 0000.0001)         System time:  0.000000000000000E+000
(PID.TID 0000.0001)     Wall clock time:   2.05941343307495
(PID.TID 0000.0001)          No. starts:       21600
(PID.TID 0000.0001)           No. stops:       21600
(PID.TID 0000.0001)   Seconds in section "INTEGR_CONTINUITY   [FORWARD_STEP]":
(PID.TID 0000.0001)           User time:   1.23402005061507
(PID.TID 0000.0001)         System time:  0.000000000000000E+000
(PID.TID 0000.0001)     Wall clock time:   1.24004173278809
(PID.TID 0000.0001)          No. starts:       21600
(PID.TID 0000.0001)           No. stops:       21600
(PID.TID 0000.0001)   Seconds in section "TRC_CORRECTION_STEP [FORWARD_STEP]":
(PID.TID 0000.0001)           User time:  0.223706889897585
(PID.TID 0000.0001)         System time:  0.000000000000000E+000
(PID.TID 0000.0001)     Wall clock time:  0.223298072814941
(PID.TID 0000.0001)          No. starts:       21600
(PID.TID 0000.0001)           No. stops:       21600
(PID.TID 0000.0001)   Seconds in section "BLOCKING_EXCHANGES  [FORWARD_STEP]":
(PID.TID 0000.0001)           User time:  0.562592241913080
(PID.TID 0000.0001)         System time:  0.000000000000000E+000
(PID.TID 0000.0001)     Wall clock time:  0.568711042404175
(PID.TID 0000.0001)          No. starts:       21600
(PID.TID 0000.0001)           No. stops:       21600
(PID.TID 0000.0001)   Seconds in section "MONITOR             [FORWARD_STEP]":
(PID.TID 0000.0001)           User time:  0.543853674083948
(PID.TID 0000.0001)         System time:  0.000000000000000E+000
(PID.TID 0000.0001)     Wall clock time:  0.706535100936890
(PID.TID 0000.0001)          No. starts:       21600
(PID.TID 0000.0001)           No. stops:       21600
(PID.TID 0000.0001)   Seconds in section "DO_THE_MODEL_IO     [FORWARD_STEP]":
(PID.TID 0000.0001)           User time:   1.00704731419683
(PID.TID 0000.0001)         System time:  0.000000000000000E+000
(PID.TID 0000.0001)     Wall clock time:   49.3986220359802
(PID.TID 0000.0001)          No. starts:       21600
(PID.TID 0000.0001)           No. stops:       21600
(PID.TID 0000.0001)   Seconds in section "DO_WRITE_PICKUP     [FORWARD_STEP]":
(PID.TID 0000.0001)           User time:  0.231531608849764
(PID.TID 0000.0001)         System time:  0.000000000000000E+000
(PID.TID 0000.0001)     Wall clock time:  0.300736188888550
(PID.TID 0000.0001)          No. starts:       21600
(PID.TID 0000.0001)           No. stops:       21600
(PID.TID 0000.0001) // ======================================================
(PID.TID 0000.0001) // Tile <-> Tile communication statistics
(PID.TID 0000.0001) // ======================================================
(PID.TID 0000.0001) // o Tile number: 000001
(PID.TID 0000.0001) //         No. X exchanges =              0
(PID.TID 0000.0001) //            Max. X spins =              0
(PID.TID 0000.0001) //            Min. X spins =     1000000000
(PID.TID 0000.0001) //          Total. X spins =              0
(PID.TID 0000.0001) //            Avg. X spins =       0.00E+00
(PID.TID 0000.0001) //         No. Y exchanges =              0
(PID.TID 0000.0001) //            Max. Y spins =              0
(PID.TID 0000.0001) //            Min. Y spins =     1000000000
(PID.TID 0000.0001) //          Total. Y spins =              0
(PID.TID 0000.0001) //            Avg. Y spins =       0.00E+00
(PID.TID 0000.0001) // o Thread number: 000001
(PID.TID 0000.0001) //            No. barriers =        9926354
(PID.TID 0000.0001) //      Max. barrier spins =              1
(PID.TID 0000.0001) //      Min. barrier spins =              1
(PID.TID 0000.0001) //     Total barrier spins =        9926354
(PID.TID 0000.0001) //      Avg. barrier spins =       1.00E+00
PROGRAM MAIN: Execution ended Normally
