(PID.TID 0000.0001) 
(PID.TID 0000.0001) // ======================================================
(PID.TID 0000.0001) //                      MITgcm UV
(PID.TID 0000.0001) //                      =========
(PID.TID 0000.0001) // ======================================================
(PID.TID 0000.0001) // execution environment starting up...
(PID.TID 0000.0001) 
(PID.TID 0000.0001) // MITgcmUV version:  checkpoint67v
(PID.TID 0000.0001) // Build user:        eavesr
(PID.TID 0000.0001) // Build host:        atmlxint3
(PID.TID 0000.0001) // Build date:        Thu 25 Feb 14:25:42 GMT 2021
(PID.TID 0000.0001) 
(PID.TID 0000.0001) // =======================================================
(PID.TID 0000.0001) // Execution Environment parameter file "eedata"
(PID.TID 0000.0001) // =======================================================
(PID.TID 0000.0001) ># Example "eedata" file
(PID.TID 0000.0001) ># Lines beginning "#" are comments
(PID.TID 0000.0001) >#  nTx      :: No. threads per process in X
(PID.TID 0000.0001) >#  nTy      :: No. threads per process in Y
(PID.TID 0000.0001) ># debugMode :: print debug msg (sequence of S/R calls)
(PID.TID 0000.0001) > &EEPARMS
(PID.TID 0000.0001) > nTx=1,
(PID.TID 0000.0001) > nTy=1,
(PID.TID 0000.0001) > &
(PID.TID 0000.0001) ># Note: Some systems use & as the namelist terminator (as shown here).
(PID.TID 0000.0001) >#       Other systems use a / character.
(PID.TID 0000.0001) 
(PID.TID 0000.0001) // =======================================================
(PID.TID 0000.0001) // Computational Grid Specification ( see files "SIZE.h" )
(PID.TID 0000.0001) //                                  ( and "eedata"       )
(PID.TID 0000.0001) // =======================================================
(PID.TID 0000.0001)      nPx =    2 ; /* No. processes in X */
(PID.TID 0000.0001)      nPy =    2 ; /* No. processes in Y */
(PID.TID 0000.0001)      nSx =    1 ; /* No. tiles in X per process */
(PID.TID 0000.0001)      nSy =    1 ; /* No. tiles in Y per process */
(PID.TID 0000.0001)      sNx =  124 ; /* Tile size in X */
(PID.TID 0000.0001)      sNy =  124 ; /* Tile size in Y */
(PID.TID 0000.0001)      OLx =    2 ; /* Tile overlap distance in X */
(PID.TID 0000.0001)      OLy =    2 ; /* Tile overlap distance in Y */
(PID.TID 0000.0001)      nTx =    1 ; /* No. threads in X per process */
(PID.TID 0000.0001)      nTy =    1 ; /* No. threads in Y per process */
(PID.TID 0000.0001)       Nr =    1 ; /* No. levels in the vertical   */
(PID.TID 0000.0001)       Nx =  248 ; /* Total domain size in X ( = nPx*nSx*sNx ) */
(PID.TID 0000.0001)       Ny =  248 ; /* Total domain size in Y ( = nPy*nSy*sNy ) */
(PID.TID 0000.0001)   nTiles =    1 ; /* Total no. tiles per process ( = nSx*nSy ) */
(PID.TID 0000.0001)   nProcs =    4 ; /* Total no. processes ( = nPx*nPy ) */
(PID.TID 0000.0001) nThreads =    1 ; /* Total no. threads per process ( = nTx*nTy ) */
(PID.TID 0000.0001) usingMPI =    T ; /* Flag used to control whether MPI is in use */
(PID.TID 0000.0001)                   /*  note: To execute a program with MPI calls */
(PID.TID 0000.0001)                   /*  it must be launched appropriately e.g     */
(PID.TID 0000.0001)                   /*  "mpirun -np 64 ......"                    */
(PID.TID 0000.0001) useCoupler=   F ; /* Flag used to control communications with   */
(PID.TID 0000.0001)                   /*  other model components, through a coupler */
(PID.TID 0000.0001) useNest2W_parent =    F ;/* Control 2-W Nesting comm */
(PID.TID 0000.0001) useNest2W_child  =    F ;/* Control 2-W Nesting comm */
(PID.TID 0000.0001) debugMode =    F ; /* print debug msg. (sequence of S/R calls)  */
(PID.TID 0000.0001) printMapIncludesZeros=    F ; /* print zeros in Std.Output maps */
(PID.TID 0000.0001) maxLengthPrt1D=   65 /* maxLength of 1D array printed to StdOut */
(PID.TID 0000.0001) 
(PID.TID 0000.0001) ======= Starting MPI parallel Run =========
(PID.TID 0000.0001)  My Processor Name (len:  9 ) = atmlxint3
(PID.TID 0000.0001)  Located at (  0,  0) on processor grid (0:  1,0:  1)
(PID.TID 0000.0001)  Origin at  (     1,     1) on global grid (1:   248,1:   248)
(PID.TID 0000.0001)  North neighbor = processor 0001
(PID.TID 0000.0001)  South neighbor = processor 0001
(PID.TID 0000.0001)   East neighbor = processor 0002
(PID.TID 0000.0001)   West neighbor = processor 0002
(PID.TID 0000.0001) // ======================================================
(PID.TID 0000.0001) // Mapping of tiles to threads
(PID.TID 0000.0001) // ======================================================
(PID.TID 0000.0001) // -o- Thread   1, tiles (   1:   1,   1:   1)
(PID.TID 0000.0001) 
(PID.TID 0000.0001) // ======================================================
(PID.TID 0000.0001) // Tile <-> Tile connectvity table
(PID.TID 0000.0001) // ======================================================
(PID.TID 0000.0001) // Tile number: 000001 (process no. = 000000)
(PID.TID 0000.0001) //        WEST: Tile = 000002, Process = 000002, Comm = messages
(PID.TID 0000.0001) //                bi = 000001, bj = 000001
(PID.TID 0000.0001) //        EAST: Tile = 000002, Process = 000002, Comm = messages
(PID.TID 0000.0001) //                bi = 000001, bj = 000001
(PID.TID 0000.0001) //       SOUTH: Tile = 000003, Process = 000001, Comm = messages
(PID.TID 0000.0001) //                bi = 000001, bj = 000001
(PID.TID 0000.0001) //       NORTH: Tile = 000003, Process = 000001, Comm = messages
(PID.TID 0000.0001) //                bi = 000001, bj = 000001
(PID.TID 0000.0001) 
(PID.TID 0000.0001)  INI_PARMS: opening model parameter file "data"
(PID.TID 0000.0001)  OPEN_COPY_DATA_FILE: opening file data
(PID.TID 0000.0001) // =======================================================
(PID.TID 0000.0001) // Parameter file "data"
(PID.TID 0000.0001) // =======================================================
(PID.TID 0000.0001) ># Model parameters
(PID.TID 0000.0001) ># Continuous equation parameters
(PID.TID 0000.0001) > &PARM01
(PID.TID 0000.0001) > viscAh=4.E2,
(PID.TID 0000.0001) > f0=0.7E-4,
(PID.TID 0000.0001) > beta=2.E-11,
(PID.TID 0000.0001) > rhoConst=1027.,
(PID.TID 0000.0001) > gBaro=9.81,
(PID.TID 0000.0001) > rigidLid=.FALSE.,
(PID.TID 0000.0001) > implicitFreeSurface=.TRUE.,
(PID.TID 0000.0001) ># momAdvection=.FALSE.,
(PID.TID 0000.0001) > tempStepping=.FALSE.,
(PID.TID 0000.0001) > saltStepping=.FALSE.,
(PID.TID 0000.0001) > useSingleCpuIO=.TRUE.,
(PID.TID 0000.0001) > hFacMin=0.1,
(PID.TID 0000.0001) > &
(PID.TID 0000.0001) >
(PID.TID 0000.0001) ># Elliptic solver parameters
(PID.TID 0000.0001) > &PARM02
(PID.TID 0000.0001) > cg2dTargetResidual=1.E-7,
(PID.TID 0000.0001) > cg2dMaxIters=1000,
(PID.TID 0000.0001) > &
(PID.TID 0000.0001) >
(PID.TID 0000.0001) ># Time stepping parameters
(PID.TID 0000.0001) > &PARM03
(PID.TID 0000.0001) > nIter0=0,
(PID.TID 0000.0001) > nTimeSteps=100,
(PID.TID 0000.0001) > deltaT=5400.0,
(PID.TID 0000.0001) > pChkptFreq=31104000.0,
(PID.TID 0000.0001) > chkptFreq=25920000.0,
(PID.TID 0000.0001) > dumpFreq=864000.0,
(PID.TID 0000.0001) > monitorFreq=86400.,
(PID.TID 0000.0001) > monitorSelect=2,
(PID.TID 0000.0001) >#-for longer run (3.0 yr):
(PID.TID 0000.0001) ># nTimeSteps=77760,
(PID.TID 0000.0001) ># monitorFreq=864000.,
(PID.TID 0000.0001) > &
(PID.TID 0000.0001) >
(PID.TID 0000.0001) ># Gridding parameters
(PID.TID 0000.0001) > &PARM04
(PID.TID 0000.0001) > usingCartesianGrid=.TRUE.,
(PID.TID 0000.0001) > delX=248*5.E3,
(PID.TID 0000.0001) > delY=248*5.E3,
(PID.TID 0000.0001) > xgOrigin=-5.E3,
(PID.TID 0000.0001) > ygOrigin=-5.E3,
(PID.TID 0000.0001) > delR=5000.,
(PID.TID 0000.0001) > &
(PID.TID 0000.0001) >
(PID.TID 0000.0001) ># Input datasets
(PID.TID 0000.0001) > &PARM05
(PID.TID 0000.0001) > bathyFile='bathy.bin'
(PID.TID 0000.0001) > zonalWindFile='wind.bin',
(PID.TID 0000.0001) >#zonalWindFile='windx_siny.bin',
(PID.TID 0000.0001) > meridWindFile=,
(PID.TID 0000.0001) > &
(PID.TID 0000.0001) 
(PID.TID 0000.0001)  INI_PARMS ; starts to read PARM01
(PID.TID 0000.0001)  INI_PARMS ; read PARM01 : OK
(PID.TID 0000.0001)  INI_PARMS ; starts to read PARM02
(PID.TID 0000.0001)  INI_PARMS ; read PARM02 : OK
(PID.TID 0000.0001)  INI_PARMS ; starts to read PARM03
(PID.TID 0000.0001)  INI_PARMS ; read PARM03 : OK
(PID.TID 0000.0001)  INI_PARMS ; starts to read PARM04
(PID.TID 0000.0001)  INI_PARMS ; read PARM04 : OK
(PID.TID 0000.0001)  INI_PARMS ; starts to read PARM05
(PID.TID 0000.0001)  INI_PARMS ; read PARM05 : OK
(PID.TID 0000.0001)  INI_PARMS: finished reading file "data"
(PID.TID 0000.0001)  PACKAGES_BOOT: opening data.pkg
(PID.TID 0000.0001)  OPEN_COPY_DATA_FILE: opening file data.pkg
(PID.TID 0000.0001) // =======================================================
(PID.TID 0000.0001) // Parameter file "data.pkg"
(PID.TID 0000.0001) // =======================================================
(PID.TID 0000.0001) ># Packages
(PID.TID 0000.0001) > &PACKAGES
(PID.TID 0000.0001) > &
(PID.TID 0000.0001) 
(PID.TID 0000.0001)  PACKAGES_BOOT: finished reading data.pkg
(PID.TID 0000.0001)  PACKAGES_BOOT: On/Off package Summary
 --------  pkgs with a standard "usePKG" On/Off switch in "data.pkg":  --------
 -------- pkgs without standard "usePKG" On/Off switch in "data.pkg":  --------
 pkg/generic_advdiff      compiled but not used ( useGAD                   = F )
 pkg/mom_common           compiled   and   used ( momStepping              = T )
 pkg/mom_vecinv           compiled but not used ( +vectorInvariantMomentum = F )
 pkg/mom_fluxform         compiled   and   used ( & not vectorInvariantMom = T )
 pkg/monitor              compiled   and   used ( monitorFreq > 0.         = T )
 pkg/debug                compiled but not used ( debugMode                = F )
 pkg/rw                   compiled   and   used
 pkg/mdsio                compiled   and   used
(PID.TID 0000.0001)  PACKAGES_BOOT: End of package Summary
(PID.TID 0000.0001) 
(PID.TID 0000.0001) SET_PARMS: done
(PID.TID 0000.0001) Enter INI_VERTICAL_GRID: setInterFDr=    T ; setCenterDr=    F
(PID.TID 0000.0001) %MON XC_max                       =   1.2325000000000E+06
(PID.TID 0000.0001) %MON XC_min                       =  -2.5000000000000E+03
(PID.TID 0000.0001) %MON XC_mean                      =   6.1500000000000E+05
(PID.TID 0000.0001) %MON XC_sd                        =   3.5795425685414E+05
(PID.TID 0000.0001) %MON XG_max                       =   1.2300000000000E+06
(PID.TID 0000.0001) %MON XG_min                       =  -5.0000000000000E+03
(PID.TID 0000.0001) %MON XG_mean                      =   6.1250000000000E+05
(PID.TID 0000.0001) %MON XG_sd                        =   3.5795425685414E+05
(PID.TID 0000.0001) %MON DXC_max                      =   5.0000000000000E+03
(PID.TID 0000.0001) %MON DXC_min                      =   5.0000000000000E+03
(PID.TID 0000.0001) %MON DXC_mean                     =   5.0000000000000E+03
(PID.TID 0000.0001) %MON DXC_sd                       =   9.0949470177293E-13
(PID.TID 0000.0001) %MON DXF_max                      =   5.0000000000000E+03
(PID.TID 0000.0001) %MON DXF_min                      =   5.0000000000000E+03
(PID.TID 0000.0001) %MON DXF_mean                     =   5.0000000000000E+03
(PID.TID 0000.0001) %MON DXF_sd                       =   9.0949470177293E-13
(PID.TID 0000.0001) %MON DXG_max                      =   5.0000000000000E+03
(PID.TID 0000.0001) %MON DXG_min                      =   5.0000000000000E+03
(PID.TID 0000.0001) %MON DXG_mean                     =   5.0000000000000E+03
(PID.TID 0000.0001) %MON DXG_sd                       =   9.0949470177293E-13
(PID.TID 0000.0001) %MON DXV_max                      =   5.0000000000000E+03
(PID.TID 0000.0001) %MON DXV_min                      =   5.0000000000000E+03
(PID.TID 0000.0001) %MON DXV_mean                     =   5.0000000000000E+03
(PID.TID 0000.0001) %MON DXV_sd                       =   9.0949470177293E-13
(PID.TID 0000.0001) %MON YC_max                       =   1.2325000000000E+06
(PID.TID 0000.0001) %MON YC_min                       =  -2.5000000000000E+03
(PID.TID 0000.0001) %MON YC_mean                      =   6.1500000000000E+05
(PID.TID 0000.0001) %MON YC_sd                        =   3.5795425685414E+05
(PID.TID 0000.0001) %MON YG_max                       =   1.2300000000000E+06
(PID.TID 0000.0001) %MON YG_min                       =  -5.0000000000000E+03
(PID.TID 0000.0001) %MON YG_mean                      =   6.1250000000000E+05
(PID.TID 0000.0001) %MON YG_sd                        =   3.5795425685414E+05
(PID.TID 0000.0001) %MON DYC_max                      =   5.0000000000000E+03
(PID.TID 0000.0001) %MON DYC_min                      =   5.0000000000000E+03
(PID.TID 0000.0001) %MON DYC_mean                     =   5.0000000000000E+03
(PID.TID 0000.0001) %MON DYC_sd                       =   9.0949470177293E-13
(PID.TID 0000.0001) %MON DYF_max                      =   5.0000000000000E+03
(PID.TID 0000.0001) %MON DYF_min                      =   5.0000000000000E+03
(PID.TID 0000.0001) %MON DYF_mean                     =   5.0000000000000E+03
(PID.TID 0000.0001) %MON DYF_sd                       =   9.0949470177293E-13
(PID.TID 0000.0001) %MON DYG_max                      =   5.0000000000000E+03
(PID.TID 0000.0001) %MON DYG_min                      =   5.0000000000000E+03
(PID.TID 0000.0001) %MON DYG_mean                     =   5.0000000000000E+03
(PID.TID 0000.0001) %MON DYG_sd                       =   9.0949470177293E-13
(PID.TID 0000.0001) %MON DYU_max                      =   5.0000000000000E+03
(PID.TID 0000.0001) %MON DYU_min                      =   5.0000000000000E+03
(PID.TID 0000.0001) %MON DYU_mean                     =   5.0000000000000E+03
(PID.TID 0000.0001) %MON DYU_sd                       =   9.0949470177293E-13
(PID.TID 0000.0001) %MON RA_max                       =   2.5000000000000E+07
(PID.TID 0000.0001) %MON RA_min                       =   2.5000000000000E+07
(PID.TID 0000.0001) %MON RA_mean                      =   2.5000000000000E+07
(PID.TID 0000.0001) %MON RA_sd                        =   3.7252902984619E-09
(PID.TID 0000.0001) %MON RAW_max                      =   2.5000000000000E+07
(PID.TID 0000.0001) %MON RAW_min                      =   2.5000000000000E+07
(PID.TID 0000.0001) %MON RAW_mean                     =   2.5000000000000E+07
(PID.TID 0000.0001) %MON RAW_sd                       =   3.7252902984619E-09
(PID.TID 0000.0001) %MON RAS_max                      =   2.5000000000000E+07
(PID.TID 0000.0001) %MON RAS_min                      =   2.5000000000000E+07
(PID.TID 0000.0001) %MON RAS_mean                     =   2.5000000000000E+07
(PID.TID 0000.0001) %MON RAS_sd                       =   3.7252902984619E-09
(PID.TID 0000.0001) %MON RAZ_max                      =   2.5000000000000E+07
(PID.TID 0000.0001) %MON RAZ_min                      =   2.5000000000000E+07
(PID.TID 0000.0001) %MON RAZ_mean                     =   2.5000000000000E+07
(PID.TID 0000.0001) %MON RAZ_sd                       =   3.7252902984619E-09
(PID.TID 0000.0001) %MON AngleCS_max                  =   1.0000000000000E+00
(PID.TID 0000.0001) %MON AngleCS_min                  =   1.0000000000000E+00
(PID.TID 0000.0001) %MON AngleCS_mean                 =   1.0000000000000E+00
(PID.TID 0000.0001) %MON AngleCS_sd                   =   0.0000000000000E+00
(PID.TID 0000.0001) %MON AngleSN_max                  =   0.0000000000000E+00
(PID.TID 0000.0001) %MON AngleSN_min                  =   0.0000000000000E+00
(PID.TID 0000.0001) %MON AngleSN_mean                 =   0.0000000000000E+00
(PID.TID 0000.0001) %MON AngleSN_sd                   =   0.0000000000000E+00
(PID.TID 0000.0001)  MDS_READ_FIELD: opening global file: bathy.bin
(PID.TID 0000.0001) // =======================================================
(PID.TID 0000.0001) // Field Model R_low (ini_masks_etc)
(PID.TID 0000.0001) // CMIN =         -4.999819335937500E+03
(PID.TID 0000.0001) // CMAX =         -4.500020019531250E+03
(PID.TID 0000.0001) // CINT =          1.851108579282407E+01
(PID.TID 0000.0001) // SYMBOLS (CMIN->CMAX): -abcdefghijklmnopqrstuvwxyz+
(PID.TID 0000.0001) //                  0.0: .
(PID.TID 0000.0001) // RANGE I (Lo:Hi:Step):(    -1:   126:     1)
(PID.TID 0000.0001) // RANGE J (Lo:Hi:Step):(   126:    -1:    -1)
(PID.TID 0000.0001) // RANGE K (Lo:Hi:Step):(   1:   1:   1)
(PID.TID 0000.0001) // =======================================================
(PID.TID 0000.0001) K =   1
(PID.TID 0000.0001) //                I=8       I=18      I=28      I=38      I=48      I=58      I=68      I=78      I=88      I=98      I=108     I=118
(PID.TID 0000.0001) // |--J--|101234567|901234567|901234567|901234567|901234567|901234567|901234567|901234567|901234567|901234567|901234567|901234567|90123456
(PID.TID 0000.0001) //    126 a..aaabbbcccdddeeefffggghhhiiijjjjkkklllmmmnnnnoooppppqqqqrrrrssssttttuuuuuvvvvvwwwwwxxxxxxxyyyyyyyyzzzzzzzzzzz+++++++++++++++++
(PID.TID 0000.0001) //    125 a..aaabbbcccdddeeefffggghhhiiijjjjkkklllmmmnnnnoooppppqqqqrrrrssssttttuuuuuvvvvvwwwwwxxxxxxxyyyyyyyyzzzzzzzzzzz+++++++++++++++++
(PID.TID 0000.0001) //    124 a..aaabbbcccdddeeefffggghhhiiijjjjkkklllmmmnnnnoooppppqqqqrrrrssssttttuuuuuvvvvvwwwwwxxxxxxxyyyyyyyyzzzzzzzzzzz+++++++++++++++++
(PID.TID 0000.0001) //    123 a..aaabbbcccdddeeefffggghhhiiijjjjkkklllmmmnnnnoooppppqqqqrrrrssssttttuuuuuvvvvvwwwwwxxxxxxxyyyyyyyyzzzzzzzzzzz+++++++++++++++++
(PID.TID 0000.0001) //    122 a..aaabbbcccdddeeefffggghhhiiijjjjkkklllmmmnnnnoooppppqqqqrrrrssssttttuuuuuvvvvvwwwwwxxxxxxxyyyyyyyyzzzzzzzzzzz+++++++++++++++++
(PID.TID 0000.0001) //    121 a..aaabbbcccdddeeefffggghhhiiijjjjkkklllmmmnnnnoooppppqqqqrrrrssssttttuuuuuvvvvvwwwwwxxxxxxxyyyyyyyyzzzzzzzzzzz+++++++++++++++++
(PID.TID 0000.0001) //    120 a..aaabbbcccdddeeefffggghhhiiijjjjkkklllmmmnnnnoooppppqqqqrrrrssssttttuuuuuvvvvvwwwwwwxxxxxxyyyyyyyyzzzzzzzzzzz+++++++++++++++++
(PID.TID 0000.0001) //    119 a..aaabbbcccdddeeefffggghhhiiijjjjkkklllmmmnnnnoooppppqqqqrrrrssssttttuuuuuvvvvvwwwwwwxxxxxxyyyyyyyyzzzzzzzzzzzz++++++++++++++++
(PID.TID 0000.0001) //    118 a..aaabbbcccdddeeefffggghhhiiiijjjkkklllmmmmnnnoooppppqqqqrrrrssssttttuuuuuvvvvvwwwwwwxxxxxxyyyyyyyyzzzzzzzzzzzz++++++++++++++++
(PID.TID 0000.0001) //    117 a..aaabbbcccdddeeefffggghhhiiiijjjkkklllmmmmnnnoooopppqqqqrrrrssssttttuuuuuvvvvvwwwwwwxxxxxxxyyyyyyyyzzzzzzzzzzzz+++++++++++++++
(PID.TID 0000.0001) //    116 a..aaabbbcccdddeeefffggghhhiiiijjjkkklllmmmmnnnoooopppqqqqrrrrsssstttttuuuuvvvvvwwwwwwxxxxxxxyyyyyyyyzzzzzzzzzzzz+++++++++++++++
(PID.TID 0000.0001) //    115 -..-aabbbcccdddeeefffggghhhiiiijjjkkklllmmmmnnnoooopppqqqqrrrrsssstttttuuuuvvvvvvwwwwwxxxxxxxyyyyyyyyzzzzzzzzzzzzz++++++++++++++
(PID.TID 0000.0001) //    114 -..-aabbbcccdddeeefffggghhhhiiijjjkkklllmmmmnnnoooopppqqqqrrrrsssstttttuuuuuvvvvvwwwwwwxxxxxxyyyyyyyyyzzzzzzzzzzzzz+++++++++++++
(PID.TID 0000.0001) //    113 -..-aabbbcccdddeeefffggghhhhiiijjjkkklllmmmmnnnooooppppqqqrrrrsssssttttuuuuuvvvvvwwwwwwxxxxxxxyyyyyyyyzzzzzzzzzzzzzz++++++++++++
(PID.TID 0000.0001) //    112 -..-aabbbcccdddeeefffgggghhhiiijjjkkkllllmmmnnnooooppppqqqqrrrrssssttttuuuuuvvvvvwwwwwwxxxxxxxyyyyyyyyyzzzzzzzzzzzzzz+++++++++++
(PID.TID 0000.0001) //    111 -..-aabbbcccdddeeeffffggghhhiiijjjkkkllllmmmnnnnoooppppqqqqrrrrssssttttuuuuuvvvvvvwwwwwxxxxxxxyyyyyyyyyzzzzzzzzzzzzzzzz+++++++++
(PID.TID 0000.0001) //    110 -..-aabbbcccdddeeeffffggghhhiiijjjkkkllllmmmnnnnoooppppqqqqrrrrsssstttttuuuuuvvvvvwwwwwwxxxxxxxyyyyyyyyyzzzzzzzzzzzzzzzzz+++++++
(PID.TID 0000.0001) //    109 -..-aaabbcccddddeeefffggghhhiiijjjkkkllllmmmnnnnoooppppqqqqrrrrsssstttttuuuuuvvvvvwwwwwwxxxxxxxyyyyyyyyyzzzzzzzzzzzzzzzzzzzzzzzz
(PID.TID 0000.0001) //    108 -..-aaabbbcccdddeeefffggghhhiiijjjkkkklllmmmnnnnoooopppqqqqrrrrsssssttttuuuuuvvvvvwwwwwwwxxxxxxxyyyyyyyyyzzzzzzzzzzzzzzzzzzzzzzz
(PID.TID 0000.0001) //    107 -..-aaabbbcccdddeeefffggghhhiiijjjkkkklllmmmnnnnoooopppqqqqrrrrsssssttttuuuuuvvvvvvwwwwwwxxxxxxxyyyyyyyyyyzzzzzzzzzzzzzzzzzzzzzz
(PID.TID 0000.0001) //    106 -..-aaabbbcccdddeeefffggghhhiiijjjkkkklllmmmmnnnooooppppqqqqrrrrsssstttttuuuuuvvvvvwwwwwwxxxxxxxxyyyyyyyyyyzzzzzzzzzzzzzzzzzzzzz
(PID.TID 0000.0001) //    105 -..-aaabbbcccdddeeefffggghhhiiijjjjkkklllmmmmnnnooooppppqqqqrrrrsssstttttuuuuuvvvvvvwwwwwwxxxxxxxxyyyyyyyyyyzzzzzzzzzzzzzzzzzzzz
(PID.TID 0000.0001) //    104 -..-aaabbbcccdddeeefffggghhhiiijjjjkkklllmmmmnnnnoooppppqqqqrrrrsssssttttuuuuuvvvvvvwwwwwwwxxxxxxxyyyyyyyyyyyzzzzzzzzzzzzzzzzzzz
(PID.TID 0000.0001) //    103 -..-aaabbbcccdddeeefffggghhhiiiijjjkkkllllmmmnnnnoooppppqqqqrrrrssssstttttuuuuuvvvvvvwwwwwwxxxxxxxxyyyyyyyyyyyzzzzzzzzzzzzzzzzzz
(PID.TID 0000.0001) //    102 -..-aaabbbcccdddeeefffggghhhiiiijjjkkkllllmmmnnnnooooppppqqqqrrrrsssstttttuuuuuvvvvvvwwwwwwwxxxxxxxxyyyyyyyyyyyyzzzzzzzzzzzzzzzz
(PID.TID 0000.0001) //    101 -..-aaabbbcccdddeeefffggghhhhiiijjjkkkllllmmmnnnnooooppppqqqqrrrrsssssttttuuuuuuvvvvvvwwwwwwxxxxxxxxxyyyyyyyyyyyyyzzzzzzzzzzzzzz
(PID.TID 0000.0001) //    100 -..-aaabbbcccdddeeefffggghhhhiiijjjkkkklllmmmmnnnooooppppqqqqrrrrssssstttttuuuuuvvvvvvwwwwwwwxxxxxxxxxyyyyyyyyyyyyyyzzzzzzzzzzzz
(PID.TID 0000.0001) //     99 -..-aaabbbcccdddeeefffggghhhhiiijjjkkkklllmmmmnnnnoooppppqqqqrrrrrsssstttttuuuuuuvvvvvvwwwwwwwxxxxxxxxxyyyyyyyyyyyyyyyyzzzzzzzzz
(PID.TID 0000.0001) //     98 -..-aaabbbcccdddeeefffgggghhhiiijjjjkkklllmmmmnnnnooooppppqqqqrrrrssssstttttuuuuuvvvvvvwwwwwwwwxxxxxxxxxyyyyyyyyyyyyyyyyyyyyyyyy
(PID.TID 0000.0001) //     97 -..-aaabbbcccdddeeefffgggghhhiiijjjjkkkllllmmmnnnnooooppppqqqqrrrrssssstttttuuuuuuvvvvvvwwwwwwwxxxxxxxxxxyyyyyyyyyyyyyyyyyyyyyyy
(PID.TID 0000.0001) //     96 -..-aaabbbcccdddeeeffffggghhhiiijjjjkkkllllmmmmnnnooooppppqqqqrrrrrssssstttttuuuuuvvvvvvvwwwwwwwxxxxxxxxxxxyyyyyyyyyyyyyyyyyyyyy
(PID.TID 0000.0001) //     95 -..-aaabbbcccdddeeeffffggghhhiiiijjjkkkklllmmmmnnnnooopppppqqqqrrrrssssstttttuuuuuuvvvvvvvwwwwwwwxxxxxxxxxxxyyyyyyyyyyyyyyyyyyyy
(PID.TID 0000.0001) //     94 -..-aaabbbcccdddeeeefffggghhhiiiijjjkkkklllmmmmnnnnooooppppqqqqrrrrrssssstttttuuuuuuvvvvvvwwwwwwwwxxxxxxxxxxxxyyyyyyyyyyyyyyyyyy
(PID.TID 0000.0001) //     93 -..-aaabbbcccdddeeeefffggghhhhiiijjjkkkkllllmmmnnnnooooppppqqqqqrrrrssssstttttuuuuuuvvvvvvvwwwwwwwwwxxxxxxxxxxxxyyyyyyyyyyyyyyyy
(PID.TID 0000.0001) //     92 -..-aaabbbcccdddeeeefffggghhhhiiijjjjkkkllllmmmmnnnoooopppppqqqqrrrrrssssstttttuuuuuuvvvvvvvwwwwwwwwwxxxxxxxxxxxxxxyyyyyyyyyyyyy
(PID.TID 0000.0001) //     91 -..-aaabbbcccddddeeefffggghhhhiiijjjjkkkllllmmmmnnnnooooppppqqqqrrrrrsssssttttttuuuuuuvvvvvvvwwwwwwwwwxxxxxxxxxxxxxxxxxyyyyyyyyy
(PID.TID 0000.0001) //     90 -..-aaabbbcccddddeeefffgggghhhiiiijjjkkkklllmmmmnnnnooooppppqqqqqrrrrrssssstttttuuuuuuuvvvvvvvwwwwwwwwwwxxxxxxxxxxxxxxxxxxxxxxxx
(PID.TID 0000.0001) //     89 -..-aaabbbcccddddeeefffgggghhhiiiijjjkkkkllllmmmnnnnoooooppppqqqqrrrrrsssssttttttuuuuuuuvvvvvvvwwwwwwwwwwwxxxxxxxxxxxxxxxxxxxxxx
(PID.TID 0000.0001) //     88 -..-aaabbbccccdddeeeffffggghhhiiiijjjjkkkllllmmmmnnnnooooppppqqqqqrrrrrsssssttttttuuuuuuuvvvvvvvvwwwwwwwwwwxxxxxxxxxxxxxxxxxxxxx
(PID.TID 0000.0001) //     87 -..-aaabbbccccdddeeeffffggghhhhiiijjjjkkkllllmmmmnnnnoooopppppqqqqrrrrrssssssttttttuuuuuuuvvvvvvvvwwwwwwwwwwwwxxxxxxxxxxxxxxxxxx
(PID.TID 0000.0001) //     86 -..-aaabbbccccdddeeeffffggghhhhiiijjjjkkkkllllmmmmnnnnooooppppqqqqqrrrrrssssssttttttuuuuuuuvvvvvvvvwwwwwwwwwwwwwxxxxxxxxxxxxxxxx
(PID.TID 0000.0001) //     85 -..-aaabbbccccdddeeeefffggghhhhiiiijjjkkkkllllmmmmnnnnoooopppppqqqqqrrrrrssssstttttttuuuuuuuvvvvvvvvvwwwwwwwwwwwwwwwxxxxxxxxxxxx
(PID.TID 0000.0001) //     84 -..-aaabbbccccdddeeeefffgggghhhiiiijjjjkkkllllmmmmnnnnoooooppppqqqqqrrrrrsssssstttttttuuuuuuuvvvvvvvvvvwwwwwwwwwwwwwwwwwwwxxxxxx
(PID.TID 0000.0001) //     83 -..-aaabbbccccdddeeeefffgggghhhiiiijjjjkkkkllllmmmmnnnnoooopppppqqqqqrrrrrsssssstttttttuuuuuuuvvvvvvvvvvvwwwwwwwwwwwwwwwwwwwwwww
(PID.TID 0000.0001) //     82 -..-aaabbbbcccdddeeeefffgggghhhhiiijjjjkkkkllllmmmmnnnnooooopppppqqqqqrrrrrsssssstttttttuuuuuuuuvvvvvvvvvvvwwwwwwwwwwwwwwwwwwwww
(PID.TID 0000.0001) //     81 -..-aaabbbbcccddddeeeffffggghhhhiiiijjjkkkkllllmmmmmnnnnoooopppppqqqqqrrrrrrsssssstttttttuuuuuuuuvvvvvvvvvvvvwwwwwwwwwwwwwwwwwww
(PID.TID 0000.0001) //     80 -..-aaabbbbcccddddeeeffffggghhhhiiiijjjjkkkkllllmmmmnnnnooooopppppqqqqqrrrrrrsssssstttttttuuuuuuuuuvvvvvvvvvvvvvvwwwwwwwwwwwwwww
(PID.TID 0000.0001) //     79 -..-aaabbbbcccddddeeeffffgggghhhiiiijjjjkkkkllllmmmmnnnnnoooooppppqqqqqqrrrrrrsssssstttttttuuuuuuuuuuvvvvvvvvvvvvvvvvwwwwwwwwwww
(PID.TID 0000.0001) //     78 -..-aaabbbbcccddddeeeefffgggghhhhiiiijjjkkkklllllmmmmnnnnooooopppppqqqqqqrrrrrsssssssttttttttuuuuuuuuuuvvvvvvvvvvvvvvvvvvvvvvvvv
(PID.TID 0000.0001) //     77 -..-aaabbbbcccddddeeeefffgggghhhhiiiijjjjkkkkllllmmmmnnnnnooooopppppqqqqqrrrrrrsssssssttttttttuuuuuuuuuuuvvvvvvvvvvvvvvvvvvvvvvv
(PID.TID 0000.0001) //     76 -..-aaabbbbccccdddeeeeffffggghhhhiiiijjjjkkkklllllmmmmnnnnnooooopppppqqqqqrrrrrrrsssssssttttttttuuuuuuuuuuuuvvvvvvvvvvvvvvvvvvvv
(PID.TID 0000.0001) //     75 -..-aaabbbbccccdddeeeeffffgggghhhhiiiijjjjkkkkllllmmmmmnnnnoooooppppppqqqqqrrrrrrrssssssstttttttttuuuuuuuuuuuuuuvvvvvvvvvvvvvvvv
(PID.TID 0000.0001) //     74 -..-aaaabbbccccddddeeeffffgggghhhhiiiijjjjkkkklllllmmmmnnnnnooooopppppqqqqqqrrrrrrrsssssssttttttttttuuuuuuuuuuuuuuuuvvvvvvvvvvvv
(PID.TID 0000.0001) //     73 -..-aaaabbbccccddddeeeffffgggghhhhiiiijjjjkkkkkllllmmmmmnnnnnooooopppppqqqqqqrrrrrrrssssssssttttttttttuuuuuuuuuuuuuuuuuuuuuuuuuu
(PID.TID 0000.0001) //     72 -..-aaaabbbccccddddeeeeffffgggghhhhiiiijjjjkkkklllllmmmmnnnnnoooooopppppqqqqqqrrrrrrrssssssssstttttttttttuuuuuuuuuuuuuuuuuuuuuuu
(PID.TID 0000.0001) //     71 -..-aaaabbbccccddddeeeeffffgggghhhhiiiijjjjkkkkkllllmmmmmnnnnnoooooppppppqqqqqqqrrrrrrrsssssssssttttttttttttuuuuuuuuuuuuuuuuuuuu
(PID.TID 0000.0001) //     70 -..-aaaabbbbcccddddeeeeffffgggghhhhiiiijjjjjkkkklllllmmmmmnnnnnoooooppppppqqqqqqqrrrrrrrssssssssssttttttttttttttuuuuuuuuuuuuuuuu
(PID.TID 0000.0001) //     69 -..-aaaabbbbccccdddeeeeffffgggghhhhhiiiijjjjkkkkklllllmmmmnnnnnnoooooppppppqqqqqqqrrrrrrrrssssssssssttttttttttttttttttuuuuuuuuuu
(PID.TID 0000.0001) //     68 -..-aaaabbbbccccddddeeeeffffgggghhhhiiiijjjjjkkkklllllmmmmmnnnnnnooooopppppppqqqqqqqrrrrrrrrsssssssssssttttttttttttttttttttttttt
(PID.TID 0000.0001) //     67 -..-aaaabbbbccccddddeeeeffffgggghhhhiiiiijjjjkkkkklllllmmmmmnnnnnoooooopppppppqqqqqqqrrrrrrrrrsssssssssssstttttttttttttttttttttt
(PID.TID 0000.0001) //     66 -..-aaaabbbbccccddddeeeeffffggggghhhhiiiijjjjjkkkkklllllmmmmmnnnnnoooooopppppppqqqqqqqqrrrrrrrrrsssssssssssssstttttttttttttttttt
(PID.TID 0000.0001) //     65 -..-aaaabbbbccccddddeeeefffffgggghhhhiiiiijjjjkkkkklllllmmmmmmnnnnnoooooooppppppqqqqqqqqrrrrrrrrrrsssssssssssssssssttttttttttttt
(PID.TID 0000.0001) //     64 -..-aaaabbbbccccddddeeeeeffffgggghhhhhiiiijjjjjkkkkklllllmmmmmmnnnnnooooooopppppppqqqqqqqqrrrrrrrrrrrsssssssssssssssssssssssssss
(PID.TID 0000.0001) //     63 -..-aaaabbbbccccdddddeeeeffffggggghhhhiiiiijjjjjkkkkklllllmmmmmmnnnnnnooooooppppppppqqqqqqqqrrrrrrrrrrrrssssssssssssssssssssssss
(PID.TID 0000.0001) //     62 -..-aaaabbbbcccccddddeeeefffffgggghhhhhiiiijjjjjkkkkkllllllmmmmmmnnnnnnooooooopppppppqqqqqqqqqqrrrrrrrrrrrrrssssssssssssssssssss
(PID.TID 0000.0001) //     61 -..-aaaabbbbbccccddddeeeeeffffggggghhhhiiiiijjjjjkkkkkllllllmmmmmmnnnnnnoooooooppppppppqqqqqqqqqqrrrrrrrrrrrrrrrrrssssssssssssss
(PID.TID 0000.0001) //     60 -..-aaaabbbbbccccddddeeeeeffffggggghhhhhiiiiijjjjjkkkkkllllllmmmmmmnnnnnnooooooooppppppppqqqqqqqqqqqrrrrrrrrrrrrrrrrrrrrrrrrrrrr
(PID.TID 0000.0001) //     59 -..-aaaaabbbbccccdddddeeeefffffggggghhhhiiiiijjjjjkkkkkkllllllmmmmmmnnnnnnnooooooopppppppppqqqqqqqqqqqqqrrrrrrrrrrrrrrrrrrrrrrrr
(PID.TID 0000.0001) //     58 -..-aaaaabbbbcccccddddeeeeeffffggggghhhhhiiiiijjjjjkkkkkkllllllmmmmmmnnnnnnnooooooooppppppppppqqqqqqqqqqqqqqrrrrrrrrrrrrrrrrrrrr
(PID.TID 0000.0001) //     57 -..-aaaaabbbbcccccddddeeeeefffffggggghhhhhiiiiijjjjjkkkkkkllllllmmmmmmnnnnnnnnoooooooopppppppppppqqqqqqqqqqqqqqqqqrrrrrrrrrrrrrr
(PID.TID 0000.0001) //     56 -..-aaaaabbbbcccccdddddeeeefffffggggghhhhhiiiiijjjjjjkkkkkkllllllmmmmmmmnnnnnnnoooooooooppppppppppppqqqqqqqqqqqqqqqqqqqqqqqqqqqq
(PID.TID 0000.0001) //     55 -..-aaaaabbbbbccccdddddeeeeefffffggggghhhhhiiiiijjjjjjkkkkkkllllllmmmmmmmnnnnnnnnoooooooooopppppppppppppqqqqqqqqqqqqqqqqqqqqqqqq
(PID.TID 0000.0001) //     54 -..-aaaaabbbbbccccdddddeeeeefffffggggghhhhhhiiiiijjjjjjkkkkkklllllllmmmmmmmnnnnnnnnoooooooooopppppppppppppppqqqqqqqqqqqqqqqqqqqq
(PID.TID 0000.0001) //     53 -..-aaaaabbbbbcccccdddddeeeeefffffggggghhhhhiiiiiijjjjjjkkkkkklllllllmmmmmmmmnnnnnnnnooooooooooopppppppppppppppppppqqqqqqqqqqqqq
(PID.TID 0000.0001) //     52 -..-aaaaabbbbbcccccdddddeeeeefffffgggggghhhhhiiiiiijjjjjjkkkkkkllllllllmmmmmmmnnnnnnnnnnoooooooooooopppppppppppppppppppppppppppp
(PID.TID 0000.0001) //     51 -..-aaaaabbbbbcccccdddddeeeeeefffffggggghhhhhhiiiiiijjjjjjkkkkkkklllllllmmmmmmmmnnnnnnnnnnoooooooooooooopppppppppppppppppppppppp
(PID.TID 0000.0001) //     50 -..--aaaaabbbbbcccccdddddeeeeefffffgggggghhhhhhiiiiiijjjjjjkkkkkkkllllllllmmmmmmmmmnnnnnnnnnnooooooooooooooooopppppppppppppppppp
(PID.TID 0000.0001) //     49 -..--aaaaabbbbbcccccdddddeeeeeefffffgggggghhhhhhiiiiiijjjjjjkkkkkkkkllllllllmmmmmmmmmnnnnnnnnnnnnooooooooooooooooooooooppppppppp
(PID.TID 0000.0001) //     48 -..--aaaaabbbbbcccccddddddeeeeeffffffgggggghhhhhhiiiiiijjjjjjjkkkkkkklllllllllmmmmmmmmmmnnnnnnnnnnnnnooooooooooooooooooooooooooo
(PID.TID 0000.0001) //     47 -..--aaaaabbbbbccccccdddddeeeeeefffffgggggghhhhhhhiiiiiijjjjjjjkkkkkkkklllllllllmmmmmmmmmmnnnnnnnnnnnnnnnnoooooooooooooooooooooo
(PID.TID 0000.0001) //     46 -..--aaaaabbbbbbcccccddddddeeeeeffffffgggggghhhhhhhiiiiiijjjjjjjjkkkkkkkklllllllllmmmmmmmmmmmmnnnnnnnnnnnnnnnnnnnooooooooooooooo
(PID.TID 0000.0001) //     45 -..--aaaaabbbbbbcccccddddddeeeeeeffffffgggggghhhhhhhiiiiiiijjjjjjjkkkkkkkkkllllllllllmmmmmmmmmmmmmnnnnnnnnnnnnnnnnnnnnnnnnnnnnnn
(PID.TID 0000.0001) //     44 -..--aaaaabbbbbbccccccddddddeeeeeeffffffgggggghhhhhhhiiiiiiijjjjjjjjkkkkkkkkklllllllllllmmmmmmmmmmmmmmnnnnnnnnnnnnnnnnnnnnnnnnnn
(PID.TID 0000.0001) //     43 -..--aaaaaabbbbbccccccddddddeeeeeefffffffgggggghhhhhhhiiiiiiiijjjjjjjjkkkkkkkkkllllllllllllmmmmmmmmmmmmmmmmmnnnnnnnnnnnnnnnnnnnn
(PID.TID 0000.0001) //     42 -..--aaaaaabbbbbbccccccddddddeeeeeefffffffgggggghhhhhhhhiiiiiiijjjjjjjjjkkkkkkkkkklllllllllllllmmmmmmmmmmmmmmmmmmmmmmmmmnnnnnnnn
(PID.TID 0000.0001) //     41 -..--aaaaaabbbbbbccccccddddddeeeeeeefffffffggggggghhhhhhhiiiiiiiijjjjjjjjjkkkkkkkkkkkllllllllllllllmmmmmmmmmmmmmmmmmmmmmmmmmmmmm
(PID.TID 0000.0001) //     40 -..--aaaaaabbbbbbcccccccddddddeeeeeeefffffffggggggghhhhhhhhiiiiiiiijjjjjjjjjjkkkkkkkkkkklllllllllllllllllmmmmmmmmmmmmmmmmmmmmmmm
(PID.TID 0000.0001) //     39 -..--aaaaaabbbbbbbccccccdddddddeeeeeeefffffffggggggghhhhhhhhiiiiiiiiijjjjjjjjjjkkkkkkkkkkkkkllllllllllllllllllllllmmmmmmmmmmmmmm
(PID.TID 0000.0001) //     38 -..--aaaaaaabbbbbbcccccccddddddeeeeeeeffffffffgggggggghhhhhhhhiiiiiiiiijjjjjjjjjjjkkkkkkkkkkkkkkklllllllllllllllllllllllllllllll
(PID.TID 0000.0001) //     37 -..--aaaaaaabbbbbbbccccccdddddddeeeeeeeffffffffgggggggghhhhhhhhhiiiiiiiiiijjjjjjjjjjjjkkkkkkkkkkkkkkkkllllllllllllllllllllllllll
(PID.TID 0000.0001) //     36 -..--aaaaaaabbbbbbbcccccccdddddddeeeeeeeefffffffggggggggghhhhhhhhhiiiiiiiiiiijjjjjjjjjjjjjkkkkkkkkkkkkkkkkkkkkllllllllllllllllll
(PID.TID 0000.0001) //     35 -..---aaaaaabbbbbbbccccccccdddddddeeeeeeeeffffffffggggggggghhhhhhhhhiiiiiiiiiiiijjjjjjjjjjjjjjkkkkkkkkkkkkkkkkkkkkkkkkkkkkkkkkkk
(PID.TID 0000.0001) //     34 -..---aaaaaaabbbbbbbcccccccddddddddeeeeeeeeffffffffgggggggggghhhhhhhhhhiiiiiiiiiiiijjjjjjjjjjjjjjjjjkkkkkkkkkkkkkkkkkkkkkkkkkkkk
(PID.TID 0000.0001) //     33 -..---aaaaaaabbbbbbbccccccccddddddddeeeeeeeefffffffffgggggggggghhhhhhhhhhhiiiiiiiiiiiiijjjjjjjjjjjjjjjjjjjjkkkkkkkkkkkkkkkkkkkkk
(PID.TID 0000.0001) //     32 -..---aaaaaaabbbbbbbbccccccccddddddddeeeeeeeeefffffffffgggggggggghhhhhhhhhhhhiiiiiiiiiiiiiiijjjjjjjjjjjjjjjjjjjjjjjjjjjjjjjjjjjj
(PID.TID 0000.0001) //     31 -..---aaaaaaaabbbbbbbbccccccccddddddddeeeeeeeeeffffffffffggggggggggghhhhhhhhhhhhiiiiiiiiiiiiiiiiijjjjjjjjjjjjjjjjjjjjjjjjjjjjjjj
(PID.TID 0000.0001) //     30 -..---aaaaaaaabbbbbbbbcccccccccddddddddeeeeeeeeeeffffffffffggggggggggghhhhhhhhhhhhhhiiiiiiiiiiiiiiiiiiiiijjjjjjjjjjjjjjjjjjjjjjj
(PID.TID 0000.0001) //     29 -..---aaaaaaaaabbbbbbbbcccccccccdddddddddeeeeeeeeeeffffffffffggggggggggggghhhhhhhhhhhhhhhiiiiiiiiiiiiiiiiiiiiiiiiiiiiiiijjjjjjjj
(PID.TID 0000.0001) //     28 -..---aaaaaaaaabbbbbbbbbcccccccccdddddddddeeeeeeeeeeefffffffffffggggggggggggghhhhhhhhhhhhhhhhhhiiiiiiiiiiiiiiiiiiiiiiiiiiiiiiiii
(PID.TID 0000.0001) //     27 -..----aaaaaaaabbbbbbbbbbcccccccccddddddddddeeeeeeeeeeeffffffffffffgggggggggggggghhhhhhhhhhhhhhhhhhhhhhiiiiiiiiiiiiiiiiiiiiiiiii
(PID.TID 0000.0001) //     26 -..----aaaaaaaaabbbbbbbbbccccccccccdddddddddddeeeeeeeeeeefffffffffffffgggggggggggggggghhhhhhhhhhhhhhhhhhhhhhhhhhhhhhiiiiiiiiiiii
(PID.TID 0000.0001) //     25 -..----aaaaaaaaaabbbbbbbbbcccccccccccdddddddddddeeeeeeeeeeeeffffffffffffffgggggggggggggggggghhhhhhhhhhhhhhhhhhhhhhhhhhhhhhhhhhhh
(PID.TID 0000.0001) //     24 -..----aaaaaaaaaabbbbbbbbbbcccccccccccddddddddddddeeeeeeeeeeeeefffffffffffffffgggggggggggggggggggggghhhhhhhhhhhhhhhhhhhhhhhhhhhh
(PID.TID 0000.0001) //     23 -..----aaaaaaaaaaabbbbbbbbbbbcccccccccccddddddddddddeeeeeeeeeeeeeefffffffffffffffffggggggggggggggggggggggggggggggghhhhhhhhhhhhhh
(PID.TID 0000.0001) //     22 -..-----aaaaaaaaaaabbbbbbbbbbbccccccccccccdddddddddddddeeeeeeeeeeeeeeeffffffffffffffffffffgggggggggggggggggggggggggggggggggggggg
(PID.TID 0000.0001) //     21 -..-----aaaaaaaaaaabbbbbbbbbbbbcccccccccccccddddddddddddddeeeeeeeeeeeeeeeeffffffffffffffffffffffffgggggggggggggggggggggggggggggg
(PID.TID 0000.0001) //     20 -..-----aaaaaaaaaaaabbbbbbbbbbbbbcccccccccccccdddddddddddddddeeeeeeeeeeeeeeeeeeefffffffffffffffffffffffffffffffffggggggggggggggg
(PID.TID 0000.0001) //     19 -..-----aaaaaaaaaaaaabbbbbbbbbbbbbcccccccccccccccddddddddddddddddeeeeeeeeeeeeeeeeeeeeeefffffffffffffffffffffffffffffffffffffffff
(PID.TID 0000.0001) //     18 -..------aaaaaaaaaaaaabbbbbbbbbbbbbbccccccccccccccccddddddddddddddddddeeeeeeeeeeeeeeeeeeeeeeeeeeffffffffffffffffffffffffffffffff
(PID.TID 0000.0001) //     17 -..------aaaaaaaaaaaaaaabbbbbbbbbbbbbbbccccccccccccccccdddddddddddddddddddddeeeeeeeeeeeeeeeeeeeeeeeeeeeeeeeeeeefffffffffffffffff
(PID.TID 0000.0001) //     16 -..-------aaaaaaaaaaaaaaabbbbbbbbbbbbbbbbcccccccccccccccccccdddddddddddddddddddddddeeeeeeeeeeeeeeeeeeeeeeeeeeeeeeeeeeeeeeeeeeeee
(PID.TID 0000.0001) //     15 -..-------aaaaaaaaaaaaaaaaabbbbbbbbbbbbbbbbbccccccccccccccccccccdddddddddddddddddddddddddddddeeeeeeeeeeeeeeeeeeeeeeeeeeeeeeeeeee
(PID.TID 0000.0001) //     14 -..--------aaaaaaaaaaaaaaaaabbbbbbbbbbbbbbbbbbbbcccccccccccccccccccccccddddddddddddddddddddddddddddddddddddddddeeeeeeeeeeeeeeeee
(PID.TID 0000.0001) //     13 -..--------aaaaaaaaaaaaaaaaaaaabbbbbbbbbbbbbbbbbbbbbccccccccccccccccccccccccccdddddddddddddddddddddddddddddddddddddddddddddddddd
(PID.TID 0000.0001) //     12 -..---------aaaaaaaaaaaaaaaaaaaaabbbbbbbbbbbbbbbbbbbbbbbbcccccccccccccccccccccccccccccccccdddddddddddddddddddddddddddddddddddddd
(PID.TID 0000.0001) //     11 -..----------aaaaaaaaaaaaaaaaaaaaaaabbbbbbbbbbbbbbbbbbbbbbbbbbbcccccccccccccccccccccccccccccccccccccccccccccccdddddddddddddddddd
(PID.TID 0000.0001) //     10 -..-----------aaaaaaaaaaaaaaaaaaaaaaaaaabbbbbbbbbbbbbbbbbbbbbbbbbbbbbbbbcccccccccccccccccccccccccccccccccccccccccccccccccccccccc
(PID.TID 0000.0001) //      9 -..-------------aaaaaaaaaaaaaaaaaaaaaaaaaaaaabbbbbbbbbbbbbbbbbbbbbbbbbbbbbbbbbbbbbbbcccccccccccccccccccccccccccccccccccccccccccc
(PID.TID 0000.0001) //      8 -..---------------aaaaaaaaaaaaaaaaaaaaaaaaaaaaaaaaaabbbbbbbbbbbbbbbbbbbbbbbbbbbbbbbbbbbbbbbbbbbbbbbbbbbbbbbbbbcccccccccccccccccc
(PID.TID 0000.0001) //      7 -..-----------------aaaaaaaaaaaaaaaaaaaaaaaaaaaaaaaaaaaaaaaaabbbbbbbbbbbbbbbbbbbbbbbbbbbbbbbbbbbbbbbbbbbbbbbbbbbbbbbbbbbbbbbbbbb
(PID.TID 0000.0001) //      6 -..---------------------aaaaaaaaaaaaaaaaaaaaaaaaaaaaaaaaaaaaaaaaaaaaaaaaaaaabbbbbbbbbbbbbbbbbbbbbbbbbbbbbbbbbbbbbbbbbbbbbbbbbbbb
(PID.TID 0000.0001) //      5 -..--------------------------aaaaaaaaaaaaaaaaaaaaaaaaaaaaaaaaaaaaaaaaaaaaaaaaaaaaaaaaaaaaaaaaaaaaaaaaaaaaaaaaaabbbbbbbbbbbbbbbbb
(PID.TID 0000.0001) //      4 -..----------------------------------aaaaaaaaaaaaaaaaaaaaaaaaaaaaaaaaaaaaaaaaaaaaaaaaaaaaaaaaaaaaaaaaaaaaaaaaaaaaaaaaaaaaaaaaaaa
(PID.TID 0000.0001) //      3 -..-------------------------------------------------aaaaaaaaaaaaaaaaaaaaaaaaaaaaaaaaaaaaaaaaaaaaaaaaaaaaaaaaaaaaaaaaaaaaaaaaaaaa
(PID.TID 0000.0001) //      2 -..------------------------------------------------------------------------------------------------------------------aaaaaaaaaaa
(PID.TID 0000.0001) //      1 ................................................................................................................................
(PID.TID 0000.0001) //      0 ................................................................................................................................
(PID.TID 0000.0001) //     -1 -..------------------------------------------------------------------------------------------------------------------aaaaaaaaaaa
(PID.TID 0000.0001) // =======================================================
(PID.TID 0000.0001) // END OF FIELD                                          =
(PID.TID 0000.0001) // =======================================================
(PID.TID 0000.0001) 
(PID.TID 0000.0001) // =======================================================
(PID.TID 0000.0001) // Field Model Ro_surf (ini_masks_etc)
(PID.TID 0000.0001) // CMIN =          1.000000000000000E+32
(PID.TID 0000.0001) // CMAX =         -1.000000000000000E+32
(PID.TID 0000.0001) // CINT =          0.000000000000000E+00
(PID.TID 0000.0001) // SYMBOLS (CMIN->CMAX): -abcdefghijklmnopqrstuvwxyz+
(PID.TID 0000.0001) //                  0.0: .
(PID.TID 0000.0001) // RANGE I (Lo:Hi:Step):(    -1:   126:     1)
(PID.TID 0000.0001) // RANGE J (Lo:Hi:Step):(   126:    -1:    -1)
(PID.TID 0000.0001) // RANGE K (Lo:Hi:Step):(   1:   1:   1)
(PID.TID 0000.0001) // =======================================================
(PID.TID 0000.0001) // =======================================================
(PID.TID 0000.0001) // END OF FIELD                                          =
(PID.TID 0000.0001) // =======================================================
(PID.TID 0000.0001) 
(PID.TID 0000.0001) // =======================================================
(PID.TID 0000.0001) // Field hFacC at iteration          0
(PID.TID 0000.0001) // CMIN =          9.000040039062500E-01
(PID.TID 0000.0001) // CMAX =          9.999638671875001E-01
(PID.TID 0000.0001) // CINT =          3.702217158564817E-03
(PID.TID 0000.0001) // SYMBOLS (CMIN->CMAX): -abcdefghijklmnopqrstuvwxyz+
(PID.TID 0000.0001) //                  0.0: .
(PID.TID 0000.0001) // RANGE I (Lo:Hi:Step):(    -1:   126:     1)
(PID.TID 0000.0001) // RANGE J (Lo:Hi:Step):(   126:    -1:    -1)
(PID.TID 0000.0001) // RANGE K (Lo:Hi:Step):(   1:   1:   1)
(PID.TID 0000.0001) // =======================================================
(PID.TID 0000.0001) K =   1
(PID.TID 0000.0001) //                I=8       I=18      I=28      I=38      I=48      I=58      I=68      I=78      I=88      I=98      I=108     I=118
(PID.TID 0000.0001) // |--J--|101234567|901234567|901234567|901234567|901234567|901234567|901234567|901234567|901234567|901234567|901234567|901234567|90123456
(PID.TID 0000.0001) //    126 z..zzzyyyxxxwwwvvvuuutttsssrrrqqqqpppooonnnmmmmlllkkkkjjjjiiiihhhhggggfffffeeeeedddddcccccccbbbbbbbbaaaaaaaaaaa-----------------
(PID.TID 0000.0001) //    125 z..zzzyyyxxxwwwvvvuuutttsssrrrqqqqpppooonnnmmmmlllkkkkjjjjiiiihhhhggggfffffeeeeedddddcccccccbbbbbbbbaaaaaaaaaaa-----------------
(PID.TID 0000.0001) //    124 z..zzzyyyxxxwwwvvvuuutttsssrrrqqqqpppooonnnmmmmlllkkkkjjjjiiiihhhhggggfffffeeeeedddddcccccccbbbbbbbbaaaaaaaaaaa-----------------
(PID.TID 0000.0001) //    123 z..zzzyyyxxxwwwvvvuuutttsssrrrqqqqpppooonnnmmmmlllkkkkjjjjiiiihhhhggggfffffeeeeedddddcccccccbbbbbbbbaaaaaaaaaaa-----------------
(PID.TID 0000.0001) //    122 z..zzzyyyxxxwwwvvvuuutttsssrrrqqqqpppooonnnmmmmlllkkkkjjjjiiiihhhhggggfffffeeeeedddddcccccccbbbbbbbbaaaaaaaaaaa-----------------
(PID.TID 0000.0001) //    121 z..zzzyyyxxxwwwvvvuuutttsssrrrqqqqpppooonnnmmmmlllkkkkjjjjiiiihhhhggggfffffeeeeedddddcccccccbbbbbbbbaaaaaaaaaaa-----------------
(PID.TID 0000.0001) //    120 z..zzzyyyxxxwwwvvvuuutttsssrrrqqqqpppooonnnmmmmlllkkkkjjjjiiiihhhhggggfffffeeeeeddddddccccccbbbbbbbbaaaaaaaaaaa-----------------
(PID.TID 0000.0001) //    119 z..zzzyyyxxxwwwvvvuuutttsssrrrqqqqpppooonnnmmmmlllkkkkjjjjiiiihhhhggggfffffeeeeeddddddccccccbbbbbbbbaaaaaaaaaaaa----------------
(PID.TID 0000.0001) //    118 z..zzzyyyxxxwwwvvvuuutttsssrrrrqqqpppooonnnnmmmlllkkkkjjjjiiiihhhhggggfffffeeeeeddddddccccccbbbbbbbbaaaaaaaaaaaa----------------
(PID.TID 0000.0001) //    117 z..zzzyyyxxxwwwvvvuuutttsssrrrrqqqpppooonnnnmmmllllkkkjjjjiiiihhhhggggfffffeeeeeddddddcccccccbbbbbbbbaaaaaaaaaaaa---------------
(PID.TID 0000.0001) //    116 z..zzzyyyxxxwwwvvvuuutttsssrrrrqqqpppooonnnnmmmllllkkkjjjjiiiihhhhgggggffffeeeeeddddddcccccccbbbbbbbbaaaaaaaaaaaa---------------
(PID.TID 0000.0001) //    115 +..+zzyyyxxxwwwvvvuuutttsssrrrrqqqpppooonnnnmmmllllkkkjjjjiiiihhhhgggggffffeeeeeedddddcccccccbbbbbbbbaaaaaaaaaaaaa--------------
(PID.TID 0000.0001) //    114 +..+zzyyyxxxwwwvvvuuutttssssrrrqqqpppooonnnnmmmllllkkkjjjjiiiihhhhgggggfffffeeeeeddddddccccccbbbbbbbbbaaaaaaaaaaaaa-------------
(PID.TID 0000.0001) //    113 +..+zzyyyxxxwwwvvvuuutttssssrrrqqqpppooonnnnmmmllllkkkkjjjiiiihhhhhggggfffffeeeeeddddddcccccccbbbbbbbbaaaaaaaaaaaaaa------------
(PID.TID 0000.0001) //    112 +..+zzyyyxxxwwwvvvuuuttttsssrrrqqqpppoooonnnmmmllllkkkkjjjjiiiihhhhggggfffffeeeeeddddddcccccccbbbbbbbbbaaaaaaaaaaaaaa-----------
(PID.TID 0000.0001) //    111 +..+zzyyyxxxwwwvvvuuuutttsssrrrqqqpppoooonnnmmmmlllkkkkjjjjiiiihhhhggggfffffeeeeeedddddcccccccbbbbbbbbbaaaaaaaaaaaaaaaa---------
(PID.TID 0000.0001) //    110 +..+zzyyyxxxwwwvvvuuuutttsssrrrqqqpppoooonnnmmmmlllkkkkjjjjiiiihhhhgggggfffffeeeeeddddddcccccccbbbbbbbbbaaaaaaaaaaaaaaaaa-------
(PID.TID 0000.0001) //    109 +..+zzzyyxxxwwwwvvvuuutttsssrrrqqqpppoooonnnmmmmlllkkkkjjjjiiiihhhhgggggfffffeeeeeddddddcccccccbbbbbbbbbaaaaaaaaaaaaaaaaaaaaaaaa
(PID.TID 0000.0001) //    108 +..+zzzyyyxxxwwwvvvuuutttsssrrrqqqppppooonnnmmmmllllkkkjjjjiiiihhhhhggggfffffeeeeedddddddcccccccbbbbbbbbbaaaaaaaaaaaaaaaaaaaaaaa
(PID.TID 0000.0001) //    107 +..+zzzyyyxxxwwwvvvuuutttsssrrrqqqppppooonnnmmmmllllkkkjjjjiiiihhhhhggggfffffeeeeeeddddddcccccccbbbbbbbbbbaaaaaaaaaaaaaaaaaaaaaa
(PID.TID 0000.0001) //    106 +..+zzzyyyxxxwwwvvvuuutttsssrrrqqqppppooonnnnmmmllllkkkkjjjjiiiihhhhgggggfffffeeeeeddddddccccccccbbbbbbbbbbaaaaaaaaaaaaaaaaaaaaa
(PID.TID 0000.0001) //    105 +..+zzzyyyxxxwwwvvvuuutttsssrrrqqqqpppooonnnnmmmllllkkkkjjjjiiiihhhhgggggfffffeeeeeeddddddccccccccbbbbbbbbbbaaaaaaaaaaaaaaaaaaaa
(PID.TID 0000.0001) //    104 +..+zzzyyyxxxwwwvvvuuutttsssrrrqqqqpppooonnnnmmmmlllkkkkjjjjiiiihhhhhggggfffffeeeeeedddddddcccccccbbbbbbbbbbbaaaaaaaaaaaaaaaaaaa
(PID.TID 0000.0001) //    103 +..+zzzyyyxxxwwwvvvuuutttsssrrrrqqqpppoooonnnmmmmlllkkkkjjjjiiiihhhhhgggggfffffeeeeeeddddddccccccccbbbbbbbbbbbaaaaaaaaaaaaaaaaaa
(PID.TID 0000.0001) //    102 +..+zzzyyyxxxwwwvvvuuutttsssrrrrqqqpppoooonnnmmmmllllkkkkjjjjiiiihhhhgggggfffffeeeeeedddddddccccccccbbbbbbbbbbbbaaaaaaaaaaaaaaaa
(PID.TID 0000.0001) //    101 +..+zzzyyyxxxwwwvvvuuutttssssrrrqqqpppoooonnnmmmmllllkkkkjjjjiiiihhhhhggggffffffeeeeeeddddddcccccccccbbbbbbbbbbbbbaaaaaaaaaaaaaa
(PID.TID 0000.0001) //    100 +..+zzzyyyxxxwwwvvvuuutttssssrrrqqqppppooonnnnmmmllllkkkkjjjjiiiihhhhhgggggfffffeeeeeedddddddcccccccccbbbbbbbbbbbbbbaaaaaaaaaaaa
(PID.TID 0000.0001) //     99 +..+zzzyyyxxxwwwvvvuuutttssssrrrqqqppppooonnnnmmmmlllkkkkjjjjiiiiihhhhgggggffffffeeeeeedddddddcccccccccbbbbbbbbbbbbbbbbaaaaaaaaa
(PID.TID 0000.0001) //     98 +..+zzzyyyxxxwwwvvvuuuttttsssrrrqqqqpppooonnnnmmmmllllkkkkjjjjiiiihhhhhgggggfffffeeeeeeddddddddcccccccccbbbbbbbbbbbbbbbbbbbbbbbb
(PID.TID 0000.0001) //     97 +..+zzzyyyxxxwwwvvvuuuttttsssrrrqqqqpppoooonnnmmmmllllkkkkjjjjiiiihhhhhgggggffffffeeeeeedddddddccccccccccbbbbbbbbbbbbbbbbbbbbbbb
(PID.TID 0000.0001) //     96 +..+zzzyyyxxxwwwvvvuuuutttsssrrrqqqqpppoooonnnnmmmllllkkkkjjjjiiiiihhhhhgggggfffffeeeeeeedddddddcccccccccccbbbbbbbbbbbbbbbbbbbbb
(PID.TID 0000.0001) //     95 +..+zzzyyyxxxwwwvvvuuuutttsssrrrrqqqppppooonnnnmmmmlllkkkkkjjjjiiiihhhhhgggggffffffeeeeeeedddddddcccccccccccbbbbbbbbbbbbbbbbbbbb
(PID.TID 0000.0001) //     94 +..+zzzyyyxxxwwwvvvvuuutttsssrrrrqqqppppooonnnnmmmmllllkkkkjjjjiiiiihhhhhgggggffffffeeeeeeddddddddccccccccccccbbbbbbbbbbbbbbbbbb
(PID.TID 0000.0001) //     93 +..+zzzyyyxxxwwwvvvvuuutttssssrrrqqqppppoooonnnmmmmllllkkkkjjjjjiiiihhhhhgggggffffffeeeeeeedddddddddccccccccccccbbbbbbbbbbbbbbbb
(PID.TID 0000.0001) //     92 +..+zzzyyyxxxwwwvvvvuuutttssssrrrqqqqpppoooonnnnmmmllllkkkkkjjjjiiiiihhhhhgggggffffffeeeeeeedddddddddccccccccccccccbbbbbbbbbbbbb
(PID.TID 0000.0001) //     91 +..+zzzyyyxxxwwwwvvvuuutttssssrrrqqqqpppoooonnnnmmmmllllkkkkjjjjiiiiihhhhhggggggffffffeeeeeeedddddddddcccccccccccccccccbbbbbbbbb
(PID.TID 0000.0001) //     90 +..+zzzyyyxxxwwwwvvvuuuttttsssrrrrqqqppppooonnnnmmmmllllkkkkjjjjjiiiiihhhhhgggggfffffffeeeeeeeddddddddddcccccccccccccccccccccccc
(PID.TID 0000.0001) //     89 +..+zzzyyyxxxwwwwvvvuuuttttsssrrrrqqqppppoooonnnmmmmlllllkkkkjjjjiiiiihhhhhggggggfffffffeeeeeeedddddddddddcccccccccccccccccccccc
(PID.TID 0000.0001) //     88 +..+zzzyyyxxxxwwwvvvuuuutttsssrrrrqqqqpppoooonnnnmmmmllllkkkkjjjjjiiiiihhhhhggggggfffffffeeeeeeeeddddddddddccccccccccccccccccccc
(PID.TID 0000.0001) //     87 +..+zzzyyyxxxxwwwvvvuuuutttssssrrrqqqqpppoooonnnnmmmmllllkkkkkjjjjiiiiihhhhhhggggggfffffffeeeeeeeeddddddddddddcccccccccccccccccc
(PID.TID 0000.0001) //     86 +..+zzzyyyxxxxwwwvvvuuuutttssssrrrqqqqppppoooonnnnmmmmllllkkkkjjjjjiiiiihhhhhhggggggfffffffeeeeeeeedddddddddddddcccccccccccccccc
(PID.TID 0000.0001) //     85 +..+zzzyyyxxxxwwwvvvvuuutttssssrrrrqqqppppoooonnnnmmmmllllkkkkkjjjjjiiiiihhhhhgggggggfffffffeeeeeeeeedddddddddddddddcccccccccccc
(PID.TID 0000.0001) //     84 +..+zzzyyyxxxxwwwvvvvuuuttttsssrrrrqqqqpppoooonnnnmmmmlllllkkkkjjjjjiiiiihhhhhhgggggggfffffffeeeeeeeeeedddddddddddddddddddcccccc
(PID.TID 0000.0001) //     83 +..+zzzyyyxxxxwwwvvvvuuuttttsssrrrrqqqqppppoooonnnnmmmmllllkkkkkjjjjjiiiiihhhhhhgggggggfffffffeeeeeeeeeeeddddddddddddddddddddddd
(PID.TID 0000.0001) //     82 +..+zzzyyyyxxxwwwvvvvuuuttttssssrrrqqqqppppoooonnnnmmmmlllllkkkkkjjjjjiiiiihhhhhhgggggggffffffffeeeeeeeeeeeddddddddddddddddddddd
(PID.TID 0000.0001) //     81 +..+zzzyyyyxxxwwwwvvvuuuutttssssrrrrqqqppppoooonnnnnmmmmllllkkkkkjjjjjiiiiiihhhhhhgggggggffffffffeeeeeeeeeeeeddddddddddddddddddd
(PID.TID 0000.0001) //     80 +..+zzzyyyyxxxwwwwvvvuuuutttssssrrrrqqqqppppoooonnnnmmmmlllllkkkkkjjjjjiiiiiihhhhhhgggggggfffffffffeeeeeeeeeeeeeeddddddddddddddd
(PID.TID 0000.0001) //     79 +..+zzzyyyyxxxwwwwvvvuuuuttttsssrrrrqqqqppppoooonnnnmmmmmlllllkkkkjjjjjjiiiiiihhhhhhgggggggffffffffffeeeeeeeeeeeeeeeeddddddddddd
(PID.TID 0000.0001) //     78 +..+zzzyyyyxxxwwwwvvvvuuuttttssssrrrrqqqppppooooonnnnmmmmlllllkkkkkjjjjjjiiiiihhhhhhhggggggggffffffffffeeeeeeeeeeeeeeeeeeeeeeeee
(PID.TID 0000.0001) //     77 +..+zzzyyyyxxxwwwwvvvvuuuttttssssrrrrqqqqppppoooonnnnmmmmmlllllkkkkkjjjjjiiiiiihhhhhhhggggggggfffffffffffeeeeeeeeeeeeeeeeeeeeeee
(PID.TID 0000.0001) //     76 +..+zzzyyyyxxxxwwwvvvvuuuutttssssrrrrqqqqppppooooonnnnmmmmmlllllkkkkkjjjjjiiiiiiihhhhhhhggggggggffffffffffffeeeeeeeeeeeeeeeeeeee
(PID.TID 0000.0001) //     75 +..+zzzyyyyxxxxwwwvvvvuuuuttttssssrrrrqqqqppppoooonnnnnmmmmlllllkkkkkkjjjjjiiiiiiihhhhhhhgggggggggffffffffffffffeeeeeeeeeeeeeeee
(PID.TID 0000.0001) //     74 +..+zzzzyyyxxxxwwwwvvvuuuuttttssssrrrrqqqqppppooooonnnnmmmmmlllllkkkkkjjjjjjiiiiiiihhhhhhhggggggggggffffffffffffffffeeeeeeeeeeee
(PID.TID 0000.0001) //     73 +..+zzzzyyyxxxxwwwwvvvuuuuttttssssrrrrqqqqpppppoooonnnnnmmmmmlllllkkkkkjjjjjjiiiiiiihhhhhhhhggggggggggffffffffffffffffffffffffff
(PID.TID 0000.0001) //     72 +..+zzzzyyyxxxxwwwwvvvvuuuuttttssssrrrrqqqqppppooooonnnnmmmmmllllllkkkkkjjjjjjiiiiiiihhhhhhhhhgggggggggggfffffffffffffffffffffff
(PID.TID 0000.0001) //     71 +..+zzzzyyyxxxxwwwwvvvvuuuuttttssssrrrrqqqqpppppoooonnnnnmmmmmlllllkkkkkkjjjjjjjiiiiiiihhhhhhhhhggggggggggggffffffffffffffffffff
(PID.TID 0000.0001) //     70 +..+zzzzyyyyxxxwwwwvvvvuuuuttttssssrrrrqqqqqppppooooonnnnnmmmmmlllllkkkkkkjjjjjjjiiiiiiihhhhhhhhhhggggggggggggggffffffffffffffff
(PID.TID 0000.0001) //     69 +..+zzzzyyyyxxxxwwwvvvvuuuuttttsssssrrrrqqqqpppppooooonnnnmmmmmmlllllkkkkkkjjjjjjjiiiiiiiihhhhhhhhhhggggggggggggggggggffffffffff
(PID.TID 0000.0001) //     68 +..+zzzzyyyyxxxxwwwwvvvvuuuuttttssssrrrrqqqqqppppooooonnnnnmmmmmmlllllkkkkkkkjjjjjjjiiiiiiiihhhhhhhhhhhggggggggggggggggggggggggg
(PID.TID 0000.0001) //     67 +..+zzzzyyyyxxxxwwwwvvvvuuuuttttssssrrrrrqqqqpppppooooonnnnnmmmmmllllllkkkkkkkjjjjjjjiiiiiiiiihhhhhhhhhhhhgggggggggggggggggggggg
(PID.TID 0000.0001) //     66 +..+zzzzyyyyxxxxwwwwvvvvuuuutttttssssrrrrqqqqqpppppooooonnnnnmmmmmllllllkkkkkkkjjjjjjjjiiiiiiiiihhhhhhhhhhhhhhgggggggggggggggggg
(PID.TID 0000.0001) //     65 +..+zzzzyyyyxxxxwwwwvvvvuuuuuttttssssrrrrrqqqqpppppooooonnnnnnmmmmmlllllllkkkkkkjjjjjjjjiiiiiiiiiihhhhhhhhhhhhhhhhhggggggggggggg
(PID.TID 0000.0001) //     64 +..+zzzzyyyyxxxxwwwwvvvvvuuuuttttsssssrrrrqqqqqpppppooooonnnnnnmmmmmlllllllkkkkkkkjjjjjjjjiiiiiiiiiiihhhhhhhhhhhhhhhhhhhhhhhhhhh
(PID.TID 0000.0001) //     63 +..+zzzzyyyyxxxxwwwwwvvvvuuuutttttssssrrrrrqqqqqpppppooooonnnnnnmmmmmmllllllkkkkkkkkjjjjjjjjiiiiiiiiiiiihhhhhhhhhhhhhhhhhhhhhhhh
(PID.TID 0000.0001) //     62 +..+zzzzyyyyxxxxxwwwwvvvvuuuuuttttsssssrrrrqqqqqpppppoooooonnnnnnmmmmmmlllllllkkkkkkkjjjjjjjjjjiiiiiiiiiiiiihhhhhhhhhhhhhhhhhhhh
(PID.TID 0000.0001) //     61 +..+zzzzyyyyyxxxxwwwwvvvvvuuuutttttssssrrrrrqqqqqpppppoooooonnnnnnmmmmmmlllllllkkkkkkkkjjjjjjjjjjiiiiiiiiiiiiiiiiihhhhhhhhhhhhhh
(PID.TID 0000.0001) //     60 +..+zzzzyyyyyxxxxwwwwvvvvvuuuutttttsssssrrrrrqqqqqpppppoooooonnnnnnmmmmmmllllllllkkkkkkkkjjjjjjjjjjjiiiiiiiiiiiiiiiiiiiiiiiiiiii
(PID.TID 0000.0001) //     59 +..+zzzzzyyyyxxxxwwwwwvvvvuuuuutttttssssrrrrrqqqqqppppppoooooonnnnnnmmmmmmmlllllllkkkkkkkkkjjjjjjjjjjjjjiiiiiiiiiiiiiiiiiiiiiiii
(PID.TID 0000.0001) //     58 +..+zzzzzyyyyxxxxxwwwwvvvvvuuuutttttsssssrrrrrqqqqqppppppoooooonnnnnnmmmmmmmllllllllkkkkkkkkkkjjjjjjjjjjjjjjiiiiiiiiiiiiiiiiiiii
(PID.TID 0000.0001) //     57 +..+zzzzzyyyyxxxxxwwwwvvvvvuuuuutttttsssssrrrrrqqqqqppppppoooooonnnnnnmmmmmmmmllllllllkkkkkkkkkkkjjjjjjjjjjjjjjjjjiiiiiiiiiiiiii
(PID.TID 0000.0001) //     56 +..+zzzzzyyyyxxxxxwwwwwvvvvuuuuutttttsssssrrrrrqqqqqqppppppoooooonnnnnnnmmmmmmmlllllllllkkkkkkkkkkkkjjjjjjjjjjjjjjjjjjjjjjjjjjjj
(PID.TID 0000.0001) //     55 +..+zzzzzyyyyyxxxxwwwwwvvvvvuuuuutttttsssssrrrrrqqqqqqppppppoooooonnnnnnnmmmmmmmmllllllllllkkkkkkkkkkkkkjjjjjjjjjjjjjjjjjjjjjjjj
(PID.TID 0000.0001) //     54 +..+zzzzzyyyyyxxxxwwwwwvvvvvuuuuutttttssssssrrrrrqqqqqqppppppooooooonnnnnnnmmmmmmmmllllllllllkkkkkkkkkkkkkkkjjjjjjjjjjjjjjjjjjjj
(PID.TID 0000.0001) //     53 +..+zzzzzyyyyyxxxxxwwwwwvvvvvuuuuutttttsssssrrrrrrqqqqqqppppppooooooonnnnnnnnmmmmmmmmlllllllllllkkkkkkkkkkkkkkkkkkkjjjjjjjjjjjjj
(PID.TID 0000.0001) //     52 +..+zzzzzyyyyyxxxxxwwwwwvvvvvuuuuuttttttsssssrrrrrrqqqqqqppppppoooooooonnnnnnnmmmmmmmmmmllllllllllllkkkkkkkkkkkkkkkkkkkkkkkkkkkk
(PID.TID 0000.0001) //     51 +..+zzzzzyyyyyxxxxxwwwwwvvvvvvuuuuutttttssssssrrrrrrqqqqqqpppppppooooooonnnnnnnnmmmmmmmmmmllllllllllllllkkkkkkkkkkkkkkkkkkkkkkkk
(PID.TID 0000.0001) //     50 +..++zzzzzyyyyyxxxxxwwwwwvvvvvuuuuuttttttssssssrrrrrrqqqqqqpppppppoooooooonnnnnnnnnmmmmmmmmmmlllllllllllllllllkkkkkkkkkkkkkkkkkk
(PID.TID 0000.0001) //     49 +..++zzzzzyyyyyxxxxxwwwwwvvvvvvuuuuuttttttssssssrrrrrrqqqqqqppppppppoooooooonnnnnnnnnmmmmmmmmmmmmllllllllllllllllllllllkkkkkkkkk
(PID.TID 0000.0001) //     48 +..++zzzzzyyyyyxxxxxwwwwwwvvvvvuuuuuuttttttssssssrrrrrrqqqqqqqpppppppooooooooonnnnnnnnnnmmmmmmmmmmmmmlllllllllllllllllllllllllll
(PID.TID 0000.0001) //     47 +..++zzzzzyyyyyxxxxxxwwwwwvvvvvvuuuuuttttttsssssssrrrrrrqqqqqqqppppppppooooooooonnnnnnnnnnmmmmmmmmmmmmmmmmllllllllllllllllllllll
(PID.TID 0000.0001) //     46 +..++zzzzzyyyyyyxxxxxwwwwwwvvvvvuuuuuuttttttsssssssrrrrrrqqqqqqqqppppppppooooooooonnnnnnnnnnnnmmmmmmmmmmmmmmmmmmmlllllllllllllll
(PID.TID 0000.0001) //     45 +..++zzzzzyyyyyyxxxxxwwwwwwvvvvvvuuuuuuttttttsssssssrrrrrrrqqqqqqqpppppppppoooooooooonnnnnnnnnnnnnmmmmmmmmmmmmmmmmmmmmmmmmmmmmmm
(PID.TID 0000.0001) //     44 +..++zzzzzyyyyyyxxxxxxwwwwwwvvvvvvuuuuuuttttttsssssssrrrrrrrqqqqqqqqpppppppppooooooooooonnnnnnnnnnnnnnmmmmmmmmmmmmmmmmmmmmmmmmmm
(PID.TID 0000.0001) //     43 +..++zzzzzzyyyyyxxxxxxwwwwwwvvvvvvuuuuuuuttttttsssssssrrrrrrrrqqqqqqqqpppppppppoooooooooooonnnnnnnnnnnnnnnnnmmmmmmmmmmmmmmmmmmmm
(PID.TID 0000.0001) //     42 +..++zzzzzzyyyyyyxxxxxxwwwwwwvvvvvvuuuuuuuttttttssssssssrrrrrrrqqqqqqqqqppppppppppooooooooooooonnnnnnnnnnnnnnnnnnnnnnnnnmmmmmmmm
(PID.TID 0000.0001) //     41 +..++zzzzzzyyyyyyxxxxxxwwwwwwvvvvvvvuuuuuuutttttttsssssssrrrrrrrrqqqqqqqqqpppppppppppoooooooooooooonnnnnnnnnnnnnnnnnnnnnnnnnnnnn
(PID.TID 0000.0001) //     40 +..++zzzzzzyyyyyyxxxxxxxwwwwwwvvvvvvvuuuuuuutttttttssssssssrrrrrrrrqqqqqqqqqqpppppppppppooooooooooooooooonnnnnnnnnnnnnnnnnnnnnnn
(PID.TID 0000.0001) //     39 +..++zzzzzzyyyyyyyxxxxxxwwwwwwwvvvvvvvuuuuuuutttttttssssssssrrrrrrrrrqqqqqqqqqqpppppppppppppoooooooooooooooooooooonnnnnnnnnnnnnn
(PID.TID 0000.0001) //     38 +..++zzzzzzzyyyyyyxxxxxxxwwwwwwvvvvvvvuuuuuuuuttttttttssssssssrrrrrrrrrqqqqqqqqqqqpppppppppppppppooooooooooooooooooooooooooooooo
(PID.TID 0000.0001) //     37 +..++zzzzzzzyyyyyyyxxxxxxwwwwwwwvvvvvvvuuuuuuuuttttttttsssssssssrrrrrrrrrrqqqqqqqqqqqqppppppppppppppppoooooooooooooooooooooooooo
(PID.TID 0000.0001) //     36 +..++zzzzzzzyyyyyyyxxxxxxxwwwwwwwvvvvvvvvuuuuuuutttttttttsssssssssrrrrrrrrrrrqqqqqqqqqqqqqppppppppppppppppppppoooooooooooooooooo
(PID.TID 0000.0001) //     35 +..+++zzzzzzyyyyyyyxxxxxxxxwwwwwwwvvvvvvvvuuuuuuuutttttttttsssssssssrrrrrrrrrrrrqqqqqqqqqqqqqqpppppppppppppppppppppppppppppppppp
(PID.TID 0000.0001) //     34 +..+++zzzzzzzyyyyyyyxxxxxxxwwwwwwwwvvvvvvvvuuuuuuuuttttttttttssssssssssrrrrrrrrrrrrqqqqqqqqqqqqqqqqqpppppppppppppppppppppppppppp
(PID.TID 0000.0001) //     33 +..+++zzzzzzzyyyyyyyxxxxxxxxwwwwwwwwvvvvvvvvuuuuuuuuuttttttttttsssssssssssrrrrrrrrrrrrrqqqqqqqqqqqqqqqqqqqqppppppppppppppppppppp
(PID.TID 0000.0001) //     32 +..+++zzzzzzzyyyyyyyyxxxxxxxxwwwwwwwwvvvvvvvvvuuuuuuuuuttttttttttssssssssssssrrrrrrrrrrrrrrrqqqqqqqqqqqqqqqqqqqqqqqqqqqqqqqqqqqq
(PID.TID 0000.0001) //     31 +..+++zzzzzzzzyyyyyyyyxxxxxxxxwwwwwwwwvvvvvvvvvuuuuuuuuuutttttttttttssssssssssssrrrrrrrrrrrrrrrrrqqqqqqqqqqqqqqqqqqqqqqqqqqqqqqq
(PID.TID 0000.0001) //     30 +..+++zzzzzzzzyyyyyyyyxxxxxxxxxwwwwwwwwvvvvvvvvvvuuuuuuuuuutttttttttttssssssssssssssrrrrrrrrrrrrrrrrrrrrrqqqqqqqqqqqqqqqqqqqqqqq
(PID.TID 0000.0001) //     29 +..+++zzzzzzzzzyyyyyyyyxxxxxxxxxwwwwwwwwwvvvvvvvvvvuuuuuuuuuutttttttttttttsssssssssssssssrrrrrrrrrrrrrrrrrrrrrrrrrrrrrrrqqqqqqqq
(PID.TID 0000.0001) //     28 +..+++zzzzzzzzzyyyyyyyyyxxxxxxxxxwwwwwwwwwvvvvvvvvvvvuuuuuuuuuuutttttttttttttssssssssssssssssssrrrrrrrrrrrrrrrrrrrrrrrrrrrrrrrrr
(PID.TID 0000.0001) //     27 +..++++zzzzzzzzyyyyyyyyyyxxxxxxxxxwwwwwwwwwwvvvvvvvvvvvuuuuuuuuuuuuttttttttttttttssssssssssssssssssssssrrrrrrrrrrrrrrrrrrrrrrrrr
(PID.TID 0000.0001) //     26 +..++++zzzzzzzzzyyyyyyyyyxxxxxxxxxxwwwwwwwwwwwvvvvvvvvvvvuuuuuuuuuuuuuttttttttttttttttssssssssssssssssssssssssssssssrrrrrrrrrrrr
(PID.TID 0000.0001) //     25 +..++++zzzzzzzzzzyyyyyyyyyxxxxxxxxxxxwwwwwwwwwwwvvvvvvvvvvvvuuuuuuuuuuuuuuttttttttttttttttttssssssssssssssssssssssssssssssssssss
(PID.TID 0000.0001) //     24 +..++++zzzzzzzzzzyyyyyyyyyyxxxxxxxxxxxwwwwwwwwwwwwvvvvvvvvvvvvvuuuuuuuuuuuuuuuttttttttttttttttttttttssssssssssssssssssssssssssss
(PID.TID 0000.0001) //     23 +..++++zzzzzzzzzzzyyyyyyyyyyyxxxxxxxxxxxwwwwwwwwwwwwvvvvvvvvvvvvvvuuuuuuuuuuuuuuuuutttttttttttttttttttttttttttttttssssssssssssss
(PID.TID 0000.0001) //     22 +..+++++zzzzzzzzzzzyyyyyyyyyyyxxxxxxxxxxxxwwwwwwwwwwwwwvvvvvvvvvvvvvvvuuuuuuuuuuuuuuuuuuuutttttttttttttttttttttttttttttttttttttt
(PID.TID 0000.0001) //     21 +..+++++zzzzzzzzzzzyyyyyyyyyyyyxxxxxxxxxxxxxwwwwwwwwwwwwwwvvvvvvvvvvvvvvvvuuuuuuuuuuuuuuuuuuuuuuuutttttttttttttttttttttttttttttt
(PID.TID 0000.0001) //     20 +..+++++zzzzzzzzzzzzyyyyyyyyyyyyyxxxxxxxxxxxxxwwwwwwwwwwwwwwwvvvvvvvvvvvvvvvvvvvuuuuuuuuuuuuuuuuuuuuuuuuuuuuuuuuuttttttttttttttt
(PID.TID 0000.0001) //     19 +..+++++zzzzzzzzzzzzzyyyyyyyyyyyyyxxxxxxxxxxxxxxxwwwwwwwwwwwwwwwwvvvvvvvvvvvvvvvvvvvvvvuuuuuuuuuuuuuuuuuuuuuuuuuuuuuuuuuuuuuuuuu
(PID.TID 0000.0001) //     18 +..++++++zzzzzzzzzzzzzyyyyyyyyyyyyyyxxxxxxxxxxxxxxxxwwwwwwwwwwwwwwwwwwvvvvvvvvvvvvvvvvvvvvvvvvvvuuuuuuuuuuuuuuuuuuuuuuuuuuuuuuuu
(PID.TID 0000.0001) //     17 +..++++++zzzzzzzzzzzzzzzyyyyyyyyyyyyyyyxxxxxxxxxxxxxxxxwwwwwwwwwwwwwwwwwwwwwvvvvvvvvvvvvvvvvvvvvvvvvvvvvvvvvvvvuuuuuuuuuuuuuuuuu
(PID.TID 0000.0001) //     16 +..+++++++zzzzzzzzzzzzzzzyyyyyyyyyyyyyyyyxxxxxxxxxxxxxxxxxxxwwwwwwwwwwwwwwwwwwwwwwwvvvvvvvvvvvvvvvvvvvvvvvvvvvvvvvvvvvvvvvvvvvvv
(PID.TID 0000.0001) //     15 +..+++++++zzzzzzzzzzzzzzzzzyyyyyyyyyyyyyyyyyxxxxxxxxxxxxxxxxxxxxwwwwwwwwwwwwwwwwwwwwwwwwwwwwwvvvvvvvvvvvvvvvvvvvvvvvvvvvvvvvvvvv
(PID.TID 0000.0001) //     14 +..++++++++zzzzzzzzzzzzzzzzzyyyyyyyyyyyyyyyyyyyyxxxxxxxxxxxxxxxxxxxxxxxwwwwwwwwwwwwwwwwwwwwwwwwwwwwwwwwwwwwwwwwvvvvvvvvvvvvvvvvv
(PID.TID 0000.0001) //     13 +..++++++++zzzzzzzzzzzzzzzzzzzzyyyyyyyyyyyyyyyyyyyyyxxxxxxxxxxxxxxxxxxxxxxxxxxwwwwwwwwwwwwwwwwwwwwwwwwwwwwwwwwwwwwwwwwwwwwwwwwww
(PID.TID 0000.0001) //     12 +..+++++++++zzzzzzzzzzzzzzzzzzzzzyyyyyyyyyyyyyyyyyyyyyyyyxxxxxxxxxxxxxxxxxxxxxxxxxxxxxxxxxwwwwwwwwwwwwwwwwwwwwwwwwwwwwwwwwwwwwww
(PID.TID 0000.0001) //     11 +..++++++++++zzzzzzzzzzzzzzzzzzzzzzzyyyyyyyyyyyyyyyyyyyyyyyyyyyxxxxxxxxxxxxxxxxxxxxxxxxxxxxxxxxxxxxxxxxxxxxxxxwwwwwwwwwwwwwwwwww
(PID.TID 0000.0001) //     10 +..+++++++++++zzzzzzzzzzzzzzzzzzzzzzzzzzyyyyyyyyyyyyyyyyyyyyyyyyyyyyyyyyxxxxxxxxxxxxxxxxxxxxxxxxxxxxxxxxxxxxxxxxxxxxxxxxxxxxxxxx
(PID.TID 0000.0001) //      9 +..+++++++++++++zzzzzzzzzzzzzzzzzzzzzzzzzzzzzyyyyyyyyyyyyyyyyyyyyyyyyyyyyyyyyyyyyyyyxxxxxxxxxxxxxxxxxxxxxxxxxxxxxxxxxxxxxxxxxxxx
(PID.TID 0000.0001) //      8 +..+++++++++++++++zzzzzzzzzzzzzzzzzzzzzzzzzzzzzzzzzzyyyyyyyyyyyyyyyyyyyyyyyyyyyyyyyyyyyyyyyyyyyyyyyyyyyyyyyyyyxxxxxxxxxxxxxxxxxx
(PID.TID 0000.0001) //      7 +..+++++++++++++++++zzzzzzzzzzzzzzzzzzzzzzzzzzzzzzzzzzzzzzzzzyyyyyyyyyyyyyyyyyyyyyyyyyyyyyyyyyyyyyyyyyyyyyyyyyyyyyyyyyyyyyyyyyyy
(PID.TID 0000.0001) //      6 +..+++++++++++++++++++++zzzzzzzzzzzzzzzzzzzzzzzzzzzzzzzzzzzzzzzzzzzzzzzzzzzzyyyyyyyyyyyyyyyyyyyyyyyyyyyyyyyyyyyyyyyyyyyyyyyyyyyy
(PID.TID 0000.0001) //      5 +..++++++++++++++++++++++++++zzzzzzzzzzzzzzzzzzzzzzzzzzzzzzzzzzzzzzzzzzzzzzzzzzzzzzzzzzzzzzzzzzzzzzzzzzzzzzzzzzyyyyyyyyyyyyyyyyy
(PID.TID 0000.0001) //      4 +..++++++++++++++++++++++++++++++++++zzzzzzzzzzzzzzzzzzzzzzzzzzzzzzzzzzzzzzzzzzzzzzzzzzzzzzzzzzzzzzzzzzzzzzzzzzzzzzzzzzzzzzzzzzz
(PID.TID 0000.0001) //      3 +..+++++++++++++++++++++++++++++++++++++++++++++++++zzzzzzzzzzzzzzzzzzzzzzzzzzzzzzzzzzzzzzzzzzzzzzzzzzzzzzzzzzzzzzzzzzzzzzzzzzzz
(PID.TID 0000.0001) //      2 +..++++++++++++++++++++++++++++++++++++++++++++++++++++++++++++++++++++++++++++++++++++++++++++++++++++++++++++++++++zzzzzzzzzzz
(PID.TID 0000.0001) //      1 ................................................................................................................................
(PID.TID 0000.0001) //      0 ................................................................................................................................
(PID.TID 0000.0001) //     -1 +..++++++++++++++++++++++++++++++++++++++++++++++++++++++++++++++++++++++++++++++++++++++++++++++++++++++++++++++++++zzzzzzzzzzz
(PID.TID 0000.0001) // =======================================================
(PID.TID 0000.0001) // END OF FIELD                                          =
(PID.TID 0000.0001) // =======================================================
(PID.TID 0000.0001) 
(PID.TID 0000.0001) // =======================================================
(PID.TID 0000.0001) // Field hFacW at iteration          0
(PID.TID 0000.0001) // CMIN =          9.000040039062500E-01
(PID.TID 0000.0001) // CMAX =          9.999398437500000E-01
(PID.TID 0000.0001) // CINT =          3.701327401620370E-03
(PID.TID 0000.0001) // SYMBOLS (CMIN->CMAX): -abcdefghijklmnopqrstuvwxyz+
(PID.TID 0000.0001) //                  0.0: .
(PID.TID 0000.0001) // RANGE I (Lo:Hi:Step):(    -1:   126:     1)
(PID.TID 0000.0001) // RANGE J (Lo:Hi:Step):(   126:    -1:    -1)
(PID.TID 0000.0001) // RANGE K (Lo:Hi:Step):(   1:   1:   1)
(PID.TID 0000.0001) // =======================================================
(PID.TID 0000.0001) K =   1
(PID.TID 0000.0001) //                I=8       I=18      I=28      I=38      I=48      I=58      I=68      I=78      I=88      I=98      I=108     I=118
(PID.TID 0000.0001) // |--J--|101234567|901234567|901234567|901234567|901234567|901234567|901234567|901234567|901234567|901234567|901234567|901234567|90123456
(PID.TID 0000.0001) //    126 z...zzyyyxxxwwwvvvuuutttsssrrrqqqqpppooonnnmmmmlllkkkkjjjjiiiihhhhggggfffffeeeeedddddcccccccbbbbbbbbaaaaaaaaaaa-----------------
(PID.TID 0000.0001) //    125 z...zzyyyxxxwwwvvvuuutttsssrrrqqqqpppooonnnmmmmlllkkkkjjjjiiiihhhhggggfffffeeeeedddddcccccccbbbbbbbbaaaaaaaaaaa-----------------
(PID.TID 0000.0001) //    124 z...zzyyyxxxwwwvvvuuutttsssrrrqqqqpppooonnnmmmmlllkkkkjjjjiiiihhhhggggfffffeeeeedddddcccccccbbbbbbbbaaaaaaaaaaa-----------------
(PID.TID 0000.0001) //    123 z...zzyyyxxxwwwvvvuuutttsssrrrqqqqpppooonnnmmmmlllkkkkjjjjiiiihhhhggggfffffeeeeedddddcccccccbbbbbbbbaaaaaaaaaaa-----------------
(PID.TID 0000.0001) //    122 z...zzyyyxxxwwwvvvuuutttsssrrrqqqqpppooonnnmmmmlllkkkkjjjjiiiihhhhggggfffffeeeeedddddcccccccbbbbbbbbaaaaaaaaaaa-----------------
(PID.TID 0000.0001) //    121 z...zzyyyxxxwwwvvvuuutttsssrrrqqqqpppooonnnmmmmlllkkkkjjjjiiiihhhhggggfffffeeeeeddddddccccccbbbbbbbbaaaaaaaaaaa-----------------
(PID.TID 0000.0001) //    120 z...zzyyyxxxwwwvvvuuutttsssrrrqqqqpppooonnnmmmmlllkkkkjjjjiiiihhhhggggfffffeeeeeddddddccccccbbbbbbbbaaaaaaaaaaa-----------------
(PID.TID 0000.0001) //    119 z...zzyyyxxxwwwvvvuuutttsssrrrqqqqpppooonnnmmmmlllkkkkjjjjiiiihhhhggggfffffeeeeeddddddccccccbbbbbbbbaaaaaaaaaaaa----------------
(PID.TID 0000.0001) //    118 z...zzyyyxxxwwwvvvuuutttsssrrrrqqqpppooonnnnmmmlllkkkkjjjjiiiihhhhggggfffffeeeeeddddddccccccbbbbbbbbaaaaaaaaaaaa----------------
(PID.TID 0000.0001) //    117 z...zzyyyxxxwwwvvvuuutttsssrrrrqqqpppooonnnnmmmllllkkkjjjjiiiihhhhggggfffffeeeeeddddddcccccccbbbbbbbbaaaaaaaaaaaa---------------
(PID.TID 0000.0001) //    116 z...zzyyyxxxwwwvvvuuutttsssrrrrqqqpppooonnnnmmmllllkkkjjjjiiiihhhhgggggffffeeeeeddddddcccccccbbbbbbbbaaaaaaaaaaaa---------------
(PID.TID 0000.0001) //    115 z...zzyyyxxxwwwvvvuuutttssssrrrqqqpppooonnnnmmmllllkkkjjjjiiiihhhhgggggffffeeeeeedddddcccccccbbbbbbbbaaaaaaaaaaaaa--------------
(PID.TID 0000.0001) //    114 z...zzyyyxxxwwwvvvuuutttssssrrrqqqpppooonnnnmmmllllkkkjjjjiiiihhhhgggggfffffeeeeeddddddccccccbbbbbbbbbaaaaaaaaaaaaa-------------
(PID.TID 0000.0001) //    113 z...zzyyyxxxwwwvvvuuutttssssrrrqqqpppooonnnnmmmllllkkkkjjjiiiihhhhhggggfffffeeeeeddddddcccccccbbbbbbbbaaaaaaaaaaaaaa------------
(PID.TID 0000.0001) //    112 z...zzyyyxxxwwwvvvuuuttttsssrrrqqqpppoooonnnmmmllllkkkkjjjjiiiihhhhggggfffffeeeeeddddddcccccccbbbbbbbbbaaaaaaaaaaaaaa-----------
(PID.TID 0000.0001) //    111 z...zzyyyxxxwwwvvvuuuutttsssrrrqqqpppoooonnnmmmmlllkkkkjjjjiiiihhhhggggfffffeeeeeedddddcccccccbbbbbbbbbaaaaaaaaaaaaaaaa---------
(PID.TID 0000.0001) //    110 z...zzzyyxxxwwwvvvvuuutttsssrrrqqqpppoooonnnmmmmlllkkkkjjjjiiiihhhhgggggfffffeeeeeddddddcccccccbbbbbbbbbaaaaaaaaaaaaaaaaa-------
(PID.TID 0000.0001) //    109 z...zzzyyyxxxwwwvvvuuutttsssrrrqqqpppoooonnnmmmmlllkkkkjjjjiiiihhhhgggggfffffeeeeeddddddcccccccbbbbbbbbbaaaaaaaaaaaaaaaaaaaaaaaa
(PID.TID 0000.0001) //    108 z...zzzyyyxxxwwwvvvuuutttsssrrrqqqppppooonnnmmmmllllkkkjjjjiiiihhhhhggggfffffeeeeedddddddcccccccbbbbbbbbbaaaaaaaaaaaaaaaaaaaaaaa
(PID.TID 0000.0001) //    107 z...zzzyyyxxxwwwvvvuuutttsssrrrqqqppppooonnnnmmmllllkkkjjjjiiiihhhhhggggfffffeeeeeeddddddcccccccbbbbbbbbbbaaaaaaaaaaaaaaaaaaaaaa
(PID.TID 0000.0001) //    106 z...zzzyyyxxxwwwvvvuuutttsssrrrqqqqpppooonnnnmmmllllkkkkjjjjiiiihhhhgggggfffffeeeeeddddddccccccccbbbbbbbbbbaaaaaaaaaaaaaaaaaaaaa
(PID.TID 0000.0001) //    105 z...zzzyyyxxxwwwvvvuuutttsssrrrqqqqpppooonnnnmmmllllkkkkjjjjiiiihhhhgggggfffffeeeeeeddddddccccccccbbbbbbbbbbaaaaaaaaaaaaaaaaaaaa
(PID.TID 0000.0001) //    104 z...zzzyyyxxxwwwvvvuuutttsssrrrqqqqpppooonnnnmmmmlllkkkkjjjjiiiihhhhhggggfffffeeeeeedddddddcccccccbbbbbbbbbbbaaaaaaaaaaaaaaaaaaa
(PID.TID 0000.0001) //    103 z...zzzyyyxxxwwwvvvuuutttsssrrrrqqqpppoooonnnmmmmlllkkkkjjjjiiiiihhhhgggggfffffeeeeeeddddddccccccccbbbbbbbbbbbaaaaaaaaaaaaaaaaaa
(PID.TID 0000.0001) //    102 z...zzzyyyxxxwwwvvvuuutttsssrrrrqqqpppoooonnnmmmmllllkkkkjjjjiiiihhhhgggggfffffeeeeeedddddddccccccccbbbbbbbbbbbbaaaaaaaaaaaaaaaa
(PID.TID 0000.0001) //    101 z...zzzyyyxxxwwwvvvuuutttssssrrrqqqpppoooonnnmmmmllllkkkkjjjjiiiihhhhhggggffffffeeeeeeddddddcccccccccbbbbbbbbbbbbbaaaaaaaaaaaaaa
(PID.TID 0000.0001) //    100 z...zzzyyyxxxwwwvvvuuutttssssrrrqqqppppooonnnnmmmllllkkkkjjjjiiiihhhhhgggggfffffeeeeeedddddddcccccccccbbbbbbbbbbbbbbaaaaaaaaaaaa
(PID.TID 0000.0001) //     99 z...zzzyyyxxxwwwvvvuuuttttsssrrrqqqppppooonnnnmmmmlllkkkkjjjjiiiiihhhhgggggffffffeeeeeedddddddcccccccccbbbbbbbbbbbbbbbbaaaaaaaaa
(PID.TID 0000.0001) //     98 z...zzzyyyxxxwwwvvvuuuttttsssrrrqqqqpppooonnnnmmmmllllkkkkjjjjiiiihhhhhgggggfffffeeeeeeddddddddcccccccccbbbbbbbbbbbbbbbbbbbbbbbb
(PID.TID 0000.0001) //     97 z...zzzyyyxxxwwwvvvuuuttttsssrrrqqqqpppoooonnnmmmmllllkkkkjjjjiiiiihhhhgggggffffffeeeeeedddddddccccccccccbbbbbbbbbbbbbbbbbbbbbbb
(PID.TID 0000.0001) //     96 z...zzzyyyxxxwwwvvvuuuutttsssrrrqqqqpppoooonnnnmmmllllkkkkjjjjiiiiihhhhhgggggfffffeeeeeeedddddddcccccccccccbbbbbbbbbbbbbbbbbbbbb
(PID.TID 0000.0001) //     95 z...zzzyyyxxxwwwvvvuuuutttsssrrrrqqqppppooonnnnmmmmlllkkkkkjjjjiiiihhhhhgggggffffffeeeeeeedddddddcccccccccccbbbbbbbbbbbbbbbbbbbb
(PID.TID 0000.0001) //     94 z...zzzyyyxxxwwwvvvvuuutttsssrrrrqqqppppooonnnnmmmmllllkkkkjjjjiiiiihhhhhgggggffffffeeeeeeddddddddccccccccccccbbbbbbbbbbbbbbbbbb
(PID.TID 0000.0001) //     93 z...zzzyyyxxxwwwvvvvuuutttssssrrrqqqppppoooonnnmmmmllllkkkkjjjjjiiiihhhhhgggggffffffeeeeeeedddddddddccccccccccccbbbbbbbbbbbbbbbb
(PID.TID 0000.0001) //     92 z...zzzyyyxxxwwwvvvvuuutttssssrrrqqqqpppoooonnnnmmmllllkkkkkjjjjiiiiihhhhhgggggffffffeeeeeeedddddddddccccccccccccccbbbbbbbbbbbbb
(PID.TID 0000.0001) //     91 z...zzzyyyxxxwwwwvvvuuutttssssrrrqqqqpppoooonnnnmmmmllllkkkkjjjjiiiiihhhhhggggggffffffeeeeeeedddddddddcccccccccccccccccbbbbbbbbb
(PID.TID 0000.0001) //     90 z...zzzyyyxxxwwwwvvvuuuttttsssrrrrqqqppppooonnnnmmmmllllkkkkjjjjjiiiiihhhhhgggggfffffffeeeeeeeddddddddddcccccccccccccccccccccccc
(PID.TID 0000.0001) //     89 z...zzzyyyxxxwwwwvvvuuuttttsssrrrrqqqppppoooonnnmmmmlllllkkkkjjjjiiiiihhhhhggggggfffffffeeeeeeedddddddddddcccccccccccccccccccccc
(PID.TID 0000.0001) //     88 z...zzzyyyxxxxwwwvvvuuuutttsssrrrrqqqqpppoooonnnnmmmmllllkkkkjjjjjiiiiihhhhhggggggfffffffeeeeeeeeddddddddddccccccccccccccccccccc
(PID.TID 0000.0001) //     87 z...zzzyyyxxxxwwwvvvuuuutttssssrrrqqqqpppoooonnnnmmmmllllkkkkkjjjjiiiiihhhhhhggggggfffffffeeeeeeeeddddddddddddcccccccccccccccccc
(PID.TID 0000.0001) //     86 z...zzzyyyxxxxwwwvvvuuuutttssssrrrqqqqppppoooonnnnmmmmllllkkkkjjjjjiiiiihhhhhhggggggfffffffeeeeeeeedddddddddddddcccccccccccccccc
(PID.TID 0000.0001) //     85 z...zzzyyyxxxxwwwvvvvuuutttssssrrrrqqqppppoooonnnnmmmmllllkkkkkjjjjjiiiiihhhhhgggggggfffffffeeeeeeeeedddddddddddddddcccccccccccc
(PID.TID 0000.0001) //     84 z...zzzyyyxxxxwwwvvvvuuuttttsssrrrrqqqqpppoooonnnnmmmmlllllkkkkjjjjjiiiiihhhhhhgggggggfffffffeeeeeeeeeeddddddddddddddddddddccccc
(PID.TID 0000.0001) //     83 z...zzzyyyyxxxwwwvvvvuuuttttsssrrrrqqqqppppoooonnnnmmmmllllkkkkkjjjjjiiiiihhhhhhgggggggfffffffeeeeeeeeeeeddddddddddddddddddddddd
(PID.TID 0000.0001) //     82 z...zzzyyyyxxxwwwvvvvuuuttttssssrrrqqqqppppoooonnnnmmmmlllllkkkkkjjjjjiiiiihhhhhhgggggggffffffffeeeeeeeeeeeddddddddddddddddddddd
(PID.TID 0000.0001) //     81 z...zzzyyyyxxxwwwwvvvuuuutttssssrrrrqqqppppoooonnnnnmmmmllllkkkkkjjjjjiiiiiihhhhhhgggggggffffffffeeeeeeeeeeeeddddddddddddddddddd
(PID.TID 0000.0001) //     80 z...zzzyyyyxxxwwwwvvvuuuutttssssrrrrqqqqppppoooonnnnmmmmlllllkkkkkjjjjjiiiiiihhhhhhgggggggfffffffffeeeeeeeeeeeeeeddddddddddddddd
(PID.TID 0000.0001) //     79 z...zzzyyyyxxxwwwwvvvuuuuttttsssrrrrqqqqppppoooonnnnmmmmmlllllkkkkjjjjjjiiiiiihhhhhhgggggggffffffffffeeeeeeeeeeeeeeeeddddddddddd
(PID.TID 0000.0001) //     78 z...zzzyyyyxxxwwwwvvvvuuuttttssssrrrrqqqppppooooonnnnmmmmlllllkkkkkjjjjjjiiiiihhhhhhhggggggggffffffffffeeeeeeeeeeeeeeeeeeeeeeeee
(PID.TID 0000.0001) //     77 z...zzzyyyyxxxxwwwvvvvuuuttttssssrrrrqqqqppppoooonnnnmmmmmlllllkkkkkjjjjjiiiiiihhhhhhhggggggggfffffffffffeeeeeeeeeeeeeeeeeeeeeee
(PID.TID 0000.0001) //     76 z...zzzyyyyxxxxwwwvvvvuuuutttssssrrrrqqqqppppooooonnnnmmmmmlllllkkkkkjjjjjiiiiiiihhhhhhhggggggggffffffffffffeeeeeeeeeeeeeeeeeeee
(PID.TID 0000.0001) //     75 z...zzzyyyyxxxxwwwvvvvuuuuttttssssrrrrqqqqppppoooonnnnnmmmmlllllkkkkkkjjjjjiiiiiiihhhhhhhgggggggggffffffffffffffeeeeeeeeeeeeeeee
(PID.TID 0000.0001) //     74 z...zzzzyyyxxxxwwwwvvvuuuuttttssssrrrrqqqqppppooooonnnnmmmmmlllllkkkkkjjjjjjiiiiiiihhhhhhhggggggggggffffffffffffffffeeeeeeeeeeee
(PID.TID 0000.0001) //     73 z...zzzzyyyxxxxwwwwvvvvuuuttttssssrrrrqqqqpppppoooonnnnnmmmmmlllllkkkkkjjjjjjiiiiiiihhhhhhhhggggggggggffffffffffffffffffffffffff
(PID.TID 0000.0001) //     72 z...zzzzyyyxxxxwwwwvvvvuuuuttttssssrrrrqqqqppppooooonnnnmmmmmllllllkkkkkjjjjjjiiiiiiihhhhhhhhhgggggggggggfffffffffffffffffffffff
(PID.TID 0000.0001) //     71 z...zzzzyyyxxxxwwwwvvvvuuuuttttssssrrrrqqqqpppppoooonnnnnmmmmmlllllkkkkkkjjjjjjjiiiiiiihhhhhhhhhggggggggggggffffffffffffffffffff
(PID.TID 0000.0001) //     70 z...zzzzyyyyxxxwwwwvvvvuuuuttttssssrrrrqqqqqppppooooonnnnnmmmmmlllllkkkkkkjjjjjjjiiiiiiihhhhhhhhhhggggggggggggggffffffffffffffff
(PID.TID 0000.0001) //     69 z...zzzzyyyyxxxxwwwvvvvuuuuttttsssssrrrrqqqqpppppooooonnnnmmmmmmlllllkkkkkkjjjjjjjiiiiiiiihhhhhhhhhhggggggggggggggggggffffffffff
(PID.TID 0000.0001) //     68 z...zzzzyyyyxxxxwwwwvvvvuuuuttttssssrrrrqqqqqppppooooonnnnnmmmmmmlllllkkkkkkkjjjjjjjiiiiiiiihhhhhhhhhhhggggggggggggggggggggggggg
(PID.TID 0000.0001) //     67 z...zzzzyyyyxxxxwwwwvvvvuuuuttttssssrrrrrqqqqpppppooooonnnnnmmmmmllllllkkkkkkkjjjjjjjiiiiiiiiihhhhhhhhhhhhgggggggggggggggggggggg
(PID.TID 0000.0001) //     66 z...zzzzyyyyxxxxwwwwvvvvuuuutttttssssrrrrqqqqqpppppooooonnnnnmmmmmllllllkkkkkkkjjjjjjjjiiiiiiiiihhhhhhhhhhhhhhgggggggggggggggggg
(PID.TID 0000.0001) //     65 z...zzzzyyyyxxxxwwwwvvvvuuuuuttttssssrrrrrqqqqpppppooooonnnnnnmmmmmlllllllkkkkkkjjjjjjjjiiiiiiiiiiihhhhhhhhhhhhhhhhggggggggggggg
(PID.TID 0000.0001) //     64 z...zzzzyyyyxxxxwwwwvvvvvuuuuttttsssssrrrrqqqqqpppppooooonnnnnnmmmmmlllllllkkkkkkkjjjjjjjjiiiiiiiiiiihhhhhhhhhhhhhhhhhhhhhhhhhhh
(PID.TID 0000.0001) //     63 z...zzzzyyyyxxxxxwwwwvvvvuuuutttttssssrrrrrqqqqqpppppooooonnnnnnmmmmmmllllllkkkkkkkkjjjjjjjjiiiiiiiiiiiiihhhhhhhhhhhhhhhhhhhhhhh
(PID.TID 0000.0001) //     62 z...zzzzyyyyxxxxxwwwwvvvvuuuuuttttsssssrrrrqqqqqpppppoooooonnnnnnmmmmmmlllllllkkkkkkkjjjjjjjjjjiiiiiiiiiiiiihhhhhhhhhhhhhhhhhhhh
(PID.TID 0000.0001) //     61 z...zzzzyyyyyxxxxwwwwvvvvvuuuutttttssssrrrrrqqqqqpppppoooooonnnnnnmmmmmmlllllllkkkkkkkkjjjjjjjjjjiiiiiiiiiiiiiiiiihhhhhhhhhhhhhh
(PID.TID 0000.0001) //     60 z...zzzzyyyyyxxxxwwwwvvvvvuuuutttttsssssrrrrrqqqqqpppppoooooonnnnnnmmmmmmllllllllkkkkkkkkjjjjjjjjjjjiiiiiiiiiiiiiiiiiiiiiiiiiiii
(PID.TID 0000.0001) //     59 z...zzzzzyyyyxxxxwwwwwvvvvuuuuutttttssssrrrrrqqqqqqpppppoooooonnnnnnmmmmmmmlllllllkkkkkkkkkjjjjjjjjjjjjjiiiiiiiiiiiiiiiiiiiiiiii
(PID.TID 0000.0001) //     58 z...zzzzzyyyyxxxxxwwwwvvvvvuuuutttttsssssrrrrrqqqqqppppppoooooonnnnnnmmmmmmmllllllllkkkkkkkkkkjjjjjjjjjjjjjjiiiiiiiiiiiiiiiiiiii
(PID.TID 0000.0001) //     57 z...zzzzzyyyyxxxxxwwwwvvvvvuuuuutttttsssssrrrrrqqqqqppppppoooooonnnnnnmmmmmmmmllllllllkkkkkkkkkkkjjjjjjjjjjjjjjjjjiiiiiiiiiiiiii
(PID.TID 0000.0001) //     56 z...zzzzzyyyyxxxxxwwwwwvvvvuuuuutttttsssssrrrrrqqqqqqppppppoooooonnnnnnnmmmmmmmlllllllllkkkkkkkkkkkkjjjjjjjjjjjjjjjjjjjjjjjjjjjj
(PID.TID 0000.0001) //     55 z...zzzzzyyyyyxxxxwwwwwvvvvvuuuuutttttsssssrrrrrqqqqqqppppppoooooonnnnnnnmmmmmmmmllllllllllkkkkkkkkkkkkkjjjjjjjjjjjjjjjjjjjjjjjj
(PID.TID 0000.0001) //     54 z...zzzzzyyyyyxxxxxwwwwvvvvvuuuuutttttssssssrrrrrqqqqqqppppppooooooonnnnnnnmmmmmmmmllllllllllkkkkkkkkkkkkkkkjjjjjjjjjjjjjjjjjjjj
(PID.TID 0000.0001) //     53 z...zzzzzyyyyyxxxxxwwwwwvvvvvuuuuutttttsssssrrrrrrqqqqqqppppppooooooonnnnnnnnmmmmmmmmlllllllllllkkkkkkkkkkkkkkkkkkkjjjjjjjjjjjjj
(PID.TID 0000.0001) //     52 z...zzzzzyyyyyxxxxxwwwwwvvvvvuuuuuttttttsssssrrrrrrqqqqqqppppppoooooooonnnnnnnmmmmmmmmmmllllllllllllkkkkkkkkkkkkkkkkkkkkkkkkkkkk
(PID.TID 0000.0001) //     51 +...+zzzzyyyyyxxxxxwwwwwvvvvvvuuuuutttttssssssrrrrrrqqqqqqpppppppooooooonnnnnnnnmmmmmmmmmmllllllllllllllkkkkkkkkkkkkkkkkkkkkkkkk
(PID.TID 0000.0001) //     50 +...+zzzzzyyyyyxxxxxwwwwwvvvvvuuuuuttttttssssssrrrrrrqqqqqqpppppppoooooooonnnnnnnnnmmmmmmmmmmlllllllllllllllllkkkkkkkkkkkkkkkkkk
(PID.TID 0000.0001) //     49 +...+zzzzzyyyyyxxxxxwwwwwvvvvvvuuuuuttttttssssssrrrrrrqqqqqqqpppppppoooooooonnnnnnnnnmmmmmmmmmmmmllllllllllllllllllllllkkkkkkkkk
(PID.TID 0000.0001) //     48 +...+zzzzzyyyyyxxxxxwwwwwwvvvvvuuuuuuttttttssssssrrrrrrqqqqqqqpppppppooooooooonnnnnnnnnnmmmmmmmmmmmmmlllllllllllllllllllllllllll
(PID.TID 0000.0001) //     47 +...+zzzzzyyyyyxxxxxxwwwwwvvvvvvuuuuuttttttsssssssrrrrrrqqqqqqqppppppppooooooooonnnnnnnnnnmmmmmmmmmmmmmmmmllllllllllllllllllllll
(PID.TID 0000.0001) //     46 +...+zzzzzyyyyyyxxxxxwwwwwwvvvvvuuuuuuttttttsssssssrrrrrrqqqqqqqqppppppppooooooooonnnnnnnnnnnnmmmmmmmmmmmmmmmmmmmlllllllllllllll
(PID.TID 0000.0001) //     45 +...+zzzzzyyyyyyxxxxxwwwwwwvvvvvvuuuuuuttttttsssssssrrrrrrrqqqqqqqpppppppppoooooooooonnnnnnnnnnnnnmmmmmmmmmmmmmmmmmmmmmmmmmmmmmm
(PID.TID 0000.0001) //     44 +...+zzzzzyyyyyyxxxxxxwwwwwwvvvvvvuuuuuuttttttsssssssrrrrrrrqqqqqqqqpppppppppooooooooooonnnnnnnnnnnnnnmmmmmmmmmmmmmmmmmmmmmmmmmm
(PID.TID 0000.0001) //     43 +...+zzzzzzyyyyyxxxxxxwwwwwwvvvvvvuuuuuuuttttttsssssssrrrrrrrrqqqqqqqqpppppppppoooooooooooonnnnnnnnnnnnnnnnnnmmmmmmmmmmmmmmmmmmm
(PID.TID 0000.0001) //     42 +...+zzzzzzyyyyyyxxxxxxwwwwwwvvvvvvuuuuuuuttttttssssssssrrrrrrrqqqqqqqqqppppppppppooooooooooooonnnnnnnnnnnnnnnnnnnnnnnnnmmmmmmmm
(PID.TID 0000.0001) //     41 +...+zzzzzzyyyyyyxxxxxxwwwwwwvvvvvvvuuuuuuutttttttsssssssrrrrrrrrqqqqqqqqqpppppppppppoooooooooooooonnnnnnnnnnnnnnnnnnnnnnnnnnnnn
(PID.TID 0000.0001) //     40 +...+zzzzzzyyyyyyxxxxxxxwwwwwwvvvvvvvuuuuuuutttttttssssssssrrrrrrrrqqqqqqqqqqpppppppppppooooooooooooooooonnnnnnnnnnnnnnnnnnnnnnn
(PID.TID 0000.0001) //     39 +...+zzzzzzyyyyyyyxxxxxxwwwwwwwvvvvvvvuuuuuuutttttttssssssssrrrrrrrrrqqqqqqqqqqpppppppppppppoooooooooooooooooooooonnnnnnnnnnnnnn
(PID.TID 0000.0001) //     38 +...+zzzzzzzyyyyyyxxxxxxxwwwwwwwvvvvvvvuuuuuuuttttttttssssssssrrrrrrrrrqqqqqqqqqqqpppppppppppppppooooooooooooooooooooooooooooooo
(PID.TID 0000.0001) //     37 +...+zzzzzzzyyyyyyyxxxxxxwwwwwwwvvvvvvvvuuuuuuuttttttttsssssssssrrrrrrrrrrqqqqqqqqqqqqppppppppppppppppoooooooooooooooooooooooooo
(PID.TID 0000.0001) //     36 +...+zzzzzzzyyyyyyyxxxxxxxwwwwwwwvvvvvvvvuuuuuuutttttttttsssssssssrrrrrrrrrrrqqqqqqqqqqqqqppppppppppppppppppppoooooooooooooooooo
(PID.TID 0000.0001) //     35 +...++zzzzzzyyyyyyyyxxxxxxxwwwwwwwvvvvvvvvuuuuuuuutttttttttsssssssssrrrrrrrrrrrrqqqqqqqqqqqqqqpppppppppppppppppppppppppppppppppp
(PID.TID 0000.0001) //     34 +...++zzzzzzzyyyyyyyxxxxxxxwwwwwwwwvvvvvvvvuuuuuuuuttttttttttssssssssssrrrrrrrrrrrrqqqqqqqqqqqqqqqqqpppppppppppppppppppppppppppp
(PID.TID 0000.0001) //     33 +...++zzzzzzzyyyyyyyyxxxxxxxwwwwwwwwvvvvvvvvuuuuuuuuuttttttttttsssssssssssrrrrrrrrrrrrrqqqqqqqqqqqqqqqqqqqqqpppppppppppppppppppp
(PID.TID 0000.0001) //     32 +...++zzzzzzzyyyyyyyyxxxxxxxxwwwwwwwwvvvvvvvvvuuuuuuuuuttttttttttssssssssssssrrrrrrrrrrrrrrrqqqqqqqqqqqqqqqqqqqqqqqqqqqqqqqqqqqq
(PID.TID 0000.0001) //     31 +...++zzzzzzzzyyyyyyyyxxxxxxxxwwwwwwwwvvvvvvvvvuuuuuuuuuutttttttttttssssssssssssrrrrrrrrrrrrrrrrrqqqqqqqqqqqqqqqqqqqqqqqqqqqqqqq
(PID.TID 0000.0001) //     30 +...++zzzzzzzzyyyyyyyyxxxxxxxxxwwwwwwwwwvvvvvvvvvuuuuuuuuuutttttttttttssssssssssssssrrrrrrrrrrrrrrrrrrrrrqqqqqqqqqqqqqqqqqqqqqqq
(PID.TID 0000.0001) //     29 +...++zzzzzzzzzyyyyyyyyxxxxxxxxxwwwwwwwwwvvvvvvvvvvuuuuuuuuuutttttttttttttsssssssssssssssrrrrrrrrrrrrrrrrrrrrrrrrrrrrrrrqqqqqqqq
(PID.TID 0000.0001) //     28 +...++zzzzzzzzzyyyyyyyyyxxxxxxxxxwwwwwwwwwvvvvvvvvvvvuuuuuuuuuuutttttttttttttssssssssssssssssssrrrrrrrrrrrrrrrrrrrrrrrrrrrrrrrrr
(PID.TID 0000.0001) //     27 +...+++zzzzzzzzzyyyyyyyyyxxxxxxxxxwwwwwwwwwwvvvvvvvvvvvuuuuuuuuuuuuttttttttttttttssssssssssssssssssssssrrrrrrrrrrrrrrrrrrrrrrrrr
(PID.TID 0000.0001) //     26 +...+++zzzzzzzzzyyyyyyyyyyxxxxxxxxxwwwwwwwwwwwvvvvvvvvvvvuuuuuuuuuuuuuttttttttttttttttsssssssssssssssssssssssssssssssrrrrrrrrrrr
(PID.TID 0000.0001) //     25 +...+++zzzzzzzzzzyyyyyyyyyxxxxxxxxxxxwwwwwwwwwwwvvvvvvvvvvvvuuuuuuuuuuuuuuttttttttttttttttttssssssssssssssssssssssssssssssssssss
(PID.TID 0000.0001) //     24 +...+++zzzzzzzzzzyyyyyyyyyyyxxxxxxxxxxwwwwwwwwwwwwvvvvvvvvvvvvvuuuuuuuuuuuuuuutttttttttttttttttttttttsssssssssssssssssssssssssss
(PID.TID 0000.0001) //     23 +...+++zzzzzzzzzzzyyyyyyyyyyyxxxxxxxxxxxwwwwwwwwwwwwvvvvvvvvvvvvvvuuuuuuuuuuuuuuuuutttttttttttttttttttttttttttttttssssssssssssss
(PID.TID 0000.0001) //     22 +...++++zzzzzzzzzzzyyyyyyyyyyyxxxxxxxxxxxxwwwwwwwwwwwwwvvvvvvvvvvvvvvvuuuuuuuuuuuuuuuuuuuutttttttttttttttttttttttttttttttttttttt
(PID.TID 0000.0001) //     21 +...++++zzzzzzzzzzzyyyyyyyyyyyyxxxxxxxxxxxxxwwwwwwwwwwwwwwvvvvvvvvvvvvvvvvvuuuuuuuuuuuuuuuuuuuuuuutttttttttttttttttttttttttttttt
(PID.TID 0000.0001) //     20 +...++++zzzzzzzzzzzzyyyyyyyyyyyyyxxxxxxxxxxxxxwwwwwwwwwwwwwwwvvvvvvvvvvvvvvvvvvvuuuuuuuuuuuuuuuuuuuuuuuuuuuuuuuuuttttttttttttttt
(PID.TID 0000.0001) //     19 +...+++++zzzzzzzzzzzzyyyyyyyyyyyyyyxxxxxxxxxxxxxxwwwwwwwwwwwwwwwwvvvvvvvvvvvvvvvvvvvvvvuuuuuuuuuuuuuuuuuuuuuuuuuuuuuuuuuuuuuuuuu
(PID.TID 0000.0001) //     18 +...+++++zzzzzzzzzzzzzyyyyyyyyyyyyyyyxxxxxxxxxxxxxxxwwwwwwwwwwwwwwwwwwvvvvvvvvvvvvvvvvvvvvvvvvvvuuuuuuuuuuuuuuuuuuuuuuuuuuuuuuuu
(PID.TID 0000.0001) //     17 +...+++++zzzzzzzzzzzzzzzyyyyyyyyyyyyyyyxxxxxxxxxxxxxxxxxwwwwwwwwwwwwwwwwwwwwvvvvvvvvvvvvvvvvvvvvvvvvvvvvvvvvvvvvuuuuuuuuuuuuuuuu
(PID.TID 0000.0001) //     16 +...++++++zzzzzzzzzzzzzzzyyyyyyyyyyyyyyyyxxxxxxxxxxxxxxxxxxxwwwwwwwwwwwwwwwwwwwwwwwvvvvvvvvvvvvvvvvvvvvvvvvvvvvvvvvvvvvvvvvvvvvv
(PID.TID 0000.0001) //     15 +...++++++zzzzzzzzzzzzzzzzzyyyyyyyyyyyyyyyyyxxxxxxxxxxxxxxxxxxxxxwwwwwwwwwwwwwwwwwwwwwwwwwwwwvvvvvvvvvvvvvvvvvvvvvvvvvvvvvvvvvvv
(PID.TID 0000.0001) //     14 +...+++++++zzzzzzzzzzzzzzzzzzyyyyyyyyyyyyyyyyyyyxxxxxxxxxxxxxxxxxxxxxxxwwwwwwwwwwwwwwwwwwwwwwwwwwwwwwwwwwwwwwwwvvvvvvvvvvvvvvvvv
(PID.TID 0000.0001) //     13 +...++++++++zzzzzzzzzzzzzzzzzzzyyyyyyyyyyyyyyyyyyyyyxxxxxxxxxxxxxxxxxxxxxxxxxxxwwwwwwwwwwwwwwwwwwwwwwwwwwwwwwwwwwwwwwwwwwwwwwwww
(PID.TID 0000.0001) //     12 +...++++++++zzzzzzzzzzzzzzzzzzzzzyyyyyyyyyyyyyyyyyyyyyyyyxxxxxxxxxxxxxxxxxxxxxxxxxxxxxxxxxwwwwwwwwwwwwwwwwwwwwwwwwwwwwwwwwwwwwww
(PID.TID 0000.0001) //     11 +...+++++++++zzzzzzzzzzzzzzzzzzzzzzzyyyyyyyyyyyyyyyyyyyyyyyyyyyxxxxxxxxxxxxxxxxxxxxxxxxxxxxxxxxxxxxxxxxxxxxxxxxwwwwwwwwwwwwwwwww
(PID.TID 0000.0001) //     10 +...+++++++++++zzzzzzzzzzzzzzzzzzzzzzzzzyyyyyyyyyyyyyyyyyyyyyyyyyyyyyyyyxxxxxxxxxxxxxxxxxxxxxxxxxxxxxxxxxxxxxxxxxxxxxxxxxxxxxxxx
(PID.TID 0000.0001) //      9 +...++++++++++++zzzzzzzzzzzzzzzzzzzzzzzzzzzzzyyyyyyyyyyyyyyyyyyyyyyyyyyyyyyyyyyyyyyyyxxxxxxxxxxxxxxxxxxxxxxxxxxxxxxxxxxxxxxxxxxx
(PID.TID 0000.0001) //      8 +...++++++++++++++zzzzzzzzzzzzzzzzzzzzzzzzzzzzzzzzzzyyyyyyyyyyyyyyyyyyyyyyyyyyyyyyyyyyyyyyyyyyyyyyyyyyyyyyyyyyyxxxxxxxxxxxxxxxxx
(PID.TID 0000.0001) //      7 +...+++++++++++++++++zzzzzzzzzzzzzzzzzzzzzzzzzzzzzzzzzzzzzzzzyyyyyyyyyyyyyyyyyyyyyyyyyyyyyyyyyyyyyyyyyyyyyyyyyyyyyyyyyyyyyyyyyyy
(PID.TID 0000.0001) //      6 +...++++++++++++++++++++zzzzzzzzzzzzzzzzzzzzzzzzzzzzzzzzzzzzzzzzzzzzzzzzzzzzyyyyyyyyyyyyyyyyyyyyyyyyyyyyyyyyyyyyyyyyyyyyyyyyyyyy
(PID.TID 0000.0001) //      5 +...+++++++++++++++++++++++++zzzzzzzzzzzzzzzzzzzzzzzzzzzzzzzzzzzzzzzzzzzzzzzzzzzzzzzzzzzzzzzzzzzzzzzzzzzzzzzzzzzyyyyyyyyyyyyyyyy
(PID.TID 0000.0001) //      4 +...+++++++++++++++++++++++++++++++++zzzzzzzzzzzzzzzzzzzzzzzzzzzzzzzzzzzzzzzzzzzzzzzzzzzzzzzzzzzzzzzzzzzzzzzzzzzzzzzzzzzzzzzzzzz
(PID.TID 0000.0001) //      3 +...+++++++++++++++++++++++++++++++++++++++++++++++++zzzzzzzzzzzzzzzzzzzzzzzzzzzzzzzzzzzzzzzzzzzzzzzzzzzzzzzzzzzzzzzzzzzzzzzzzzz
(PID.TID 0000.0001) //      2 +...++++++++++++++++++++++++++++++++++++++++++++++++++++++++++++++++++++++++++++++++++++++++++++++++++++++++++++++++++++++++++++
(PID.TID 0000.0001) //      1 ................................................................................................................................
(PID.TID 0000.0001) //      0 ................................................................................................................................
(PID.TID 0000.0001) //     -1 +...++++++++++++++++++++++++++++++++++++++++++++++++++++++++++++++++++++++++++++++++++++++++++++++++++++++++++++++++++++++++++++
(PID.TID 0000.0001) // =======================================================
(PID.TID 0000.0001) // END OF FIELD                                          =
(PID.TID 0000.0001) // =======================================================
(PID.TID 0000.0001) 
(PID.TID 0000.0001) // =======================================================
(PID.TID 0000.0001) // Field hFacS at iteration          0
(PID.TID 0000.0001) // CMIN =          9.000040039062500E-01
(PID.TID 0000.0001) // CMAX =          9.999398437500000E-01
(PID.TID 0000.0001) // CINT =          3.701327401620370E-03
(PID.TID 0000.0001) // SYMBOLS (CMIN->CMAX): -abcdefghijklmnopqrstuvwxyz+
(PID.TID 0000.0001) //                  0.0: .
(PID.TID 0000.0001) // RANGE I (Lo:Hi:Step):(    -1:   126:     1)
(PID.TID 0000.0001) // RANGE J (Lo:Hi:Step):(   126:    -1:    -1)
(PID.TID 0000.0001) // RANGE K (Lo:Hi:Step):(   1:   1:   1)
(PID.TID 0000.0001) // =======================================================
(PID.TID 0000.0001) K =   1
(PID.TID 0000.0001) //                I=8       I=18      I=28      I=38      I=48      I=58      I=68      I=78      I=88      I=98      I=108     I=118
(PID.TID 0000.0001) // |--J--|101234567|901234567|901234567|901234567|901234567|901234567|901234567|901234567|901234567|901234567|901234567|901234567|90123456
(PID.TID 0000.0001) //    126 +..+zzyyyxxxwwwvvvuuutttsssrrrqqqqpppooonnnmmmmlllkkkkjjjjiiiihhhhggggfffffeeeeedddddcccccccbbbbbbbbaaaaaaaaaaa-----------------
(PID.TID 0000.0001) //    125 +..+zzyyyxxxwwwvvvuuutttsssrrrqqqqpppooonnnmmmmlllkkkkjjjjiiiihhhhggggfffffeeeeedddddcccccccbbbbbbbbaaaaaaaaaaa-----------------
(PID.TID 0000.0001) //    124 +..+zzyyyxxxwwwvvvuuutttsssrrrqqqqpppooonnnmmmmlllkkkkjjjjiiiihhhhggggfffffeeeeedddddcccccccbbbbbbbbaaaaaaaaaaa-----------------
(PID.TID 0000.0001) //    123 +..+zzyyyxxxwwwvvvuuutttsssrrrqqqqpppooonnnmmmmlllkkkkjjjjiiiihhhhggggfffffeeeeedddddcccccccbbbbbbbbaaaaaaaaaaa-----------------
(PID.TID 0000.0001) //    122 +..+zzyyyxxxwwwvvvuuutttsssrrrqqqqpppooonnnmmmmlllkkkkjjjjiiiihhhhggggfffffeeeeedddddcccccccbbbbbbbbaaaaaaaaaaa-----------------
(PID.TID 0000.0001) //    121 +..+zzyyyxxxwwwvvvuuutttsssrrrqqqqpppooonnnmmmmlllkkkkjjjjiiiihhhhggggfffffeeeeeddddddccccccbbbbbbbbaaaaaaaaaaa-----------------
(PID.TID 0000.0001) //    120 +..+zzyyyxxxwwwvvvuuutttsssrrrqqqqpppooonnnmmmmlllkkkkjjjjiiiihhhhggggfffffeeeeeddddddccccccbbbbbbbbaaaaaaaaaaa-----------------
(PID.TID 0000.0001) //    119 +..+zzyyyxxxwwwvvvuuutttsssrrrqqqqpppooonnnmmmmlllkkkkjjjjiiiihhhhggggfffffeeeeeddddddccccccbbbbbbbbaaaaaaaaaaaa----------------
(PID.TID 0000.0001) //    118 +..+zzyyyxxxwwwvvvuuutttsssrrrrqqqpppooonnnnmmmlllkkkkjjjjiiiihhhhggggfffffeeeeeddddddccccccbbbbbbbbaaaaaaaaaaaa----------------
(PID.TID 0000.0001) //    117 +..+zzyyyxxxwwwvvvuuutttsssrrrrqqqpppooonnnnmmmllllkkkjjjjiiiihhhhggggfffffeeeeeddddddcccccccbbbbbbbbaaaaaaaaaaaa---------------
(PID.TID 0000.0001) //    116 +..+zzyyyxxxwwwvvvuuutttsssrrrrqqqpppooonnnnmmmllllkkkjjjjiiiihhhhgggggffffeeeeeddddddcccccccbbbbbbbbaaaaaaaaaaaa---------------
(PID.TID 0000.0001) //    115 +..+zzyyyxxxwwwvvvuuutttssssrrrqqqpppooonnnnmmmllllkkkjjjjiiiihhhhgggggffffeeeeeedddddcccccccbbbbbbbbaaaaaaaaaaaaa--------------
(PID.TID 0000.0001) //    114 +..+zzyyyxxxwwwvvvuuutttssssrrrqqqpppooonnnnmmmllllkkkjjjjiiiihhhhgggggfffffeeeeeddddddccccccbbbbbbbbbaaaaaaaaaaaaa-------------
(PID.TID 0000.0001) //    113 +..+zzyyyxxxwwwvvvuuutttssssrrrqqqpppooonnnnmmmllllkkkkjjjiiiihhhhhggggfffffeeeeeddddddcccccccbbbbbbbbaaaaaaaaaaaaaa------------
(PID.TID 0000.0001) //    112 +..+zzyyyxxxwwwvvvuuuttttsssrrrqqqpppoooonnnmmmllllkkkkjjjjiiiihhhhggggfffffeeeeeddddddcccccccbbbbbbbbbaaaaaaaaaaaaaa-----------
(PID.TID 0000.0001) //    111 +..+zzyyyxxxwwwvvvuuuutttsssrrrqqqpppoooonnnmmmmlllkkkkjjjjiiiihhhhggggfffffeeeeeedddddcccccccbbbbbbbbbaaaaaaaaaaaaaaaa---------
(PID.TID 0000.0001) //    110 +..+zzzyyxxxwwwvvvvuuutttsssrrrqqqpppoooonnnmmmmlllkkkkjjjjiiiihhhhgggggfffffeeeeeddddddcccccccbbbbbbbbbaaaaaaaaaaaaaaaaa-------
(PID.TID 0000.0001) //    109 +..+zzzyyyxxxwwwvvvuuutttsssrrrqqqpppoooonnnmmmmlllkkkkjjjjiiiihhhhgggggfffffeeeeeddddddcccccccbbbbbbbbbaaaaaaaaaaaaaaaaaaaaaaaa
(PID.TID 0000.0001) //    108 +..+zzzyyyxxxwwwvvvuuutttsssrrrqqqppppooonnnmmmmllllkkkjjjjiiiihhhhhggggfffffeeeeedddddddcccccccbbbbbbbbbaaaaaaaaaaaaaaaaaaaaaaa
(PID.TID 0000.0001) //    107 +..+zzzyyyxxxwwwvvvuuutttsssrrrqqqppppooonnnnmmmllllkkkjjjjiiiihhhhhggggfffffeeeeeeddddddcccccccbbbbbbbbbbaaaaaaaaaaaaaaaaaaaaaa
(PID.TID 0000.0001) //    106 +..+zzzyyyxxxwwwvvvuuutttsssrrrqqqqpppooonnnnmmmllllkkkkjjjjiiiihhhhgggggfffffeeeeeddddddccccccccbbbbbbbbbbaaaaaaaaaaaaaaaaaaaaa
(PID.TID 0000.0001) //    105 +..+zzzyyyxxxwwwvvvuuutttsssrrrqqqqpppooonnnnmmmllllkkkkjjjjiiiihhhhgggggfffffeeeeeeddddddccccccccbbbbbbbbbbaaaaaaaaaaaaaaaaaaaa
(PID.TID 0000.0001) //    104 +..+zzzyyyxxxwwwvvvuuutttsssrrrqqqqpppooonnnnmmmmlllkkkkjjjjiiiihhhhhggggfffffeeeeeedddddddcccccccbbbbbbbbbbbaaaaaaaaaaaaaaaaaaa
(PID.TID 0000.0001) //    103 +..+zzzyyyxxxwwwvvvuuutttsssrrrrqqqpppoooonnnmmmmlllkkkkjjjjiiiiihhhhgggggfffffeeeeeeddddddccccccccbbbbbbbbbbbaaaaaaaaaaaaaaaaaa
(PID.TID 0000.0001) //    102 +..+zzzyyyxxxwwwvvvuuutttsssrrrrqqqpppoooonnnmmmmllllkkkkjjjjiiiihhhhgggggfffffeeeeeedddddddccccccccbbbbbbbbbbbbaaaaaaaaaaaaaaaa
(PID.TID 0000.0001) //    101 +..+zzzyyyxxxwwwvvvuuutttssssrrrqqqpppoooonnnmmmmllllkkkkjjjjiiiihhhhhggggffffffeeeeeeddddddcccccccccbbbbbbbbbbbbbaaaaaaaaaaaaaa
(PID.TID 0000.0001) //    100 +..+zzzyyyxxxwwwvvvuuutttssssrrrqqqppppooonnnnmmmllllkkkkjjjjiiiihhhhhgggggfffffeeeeeedddddddcccccccccbbbbbbbbbbbbbbaaaaaaaaaaaa
(PID.TID 0000.0001) //     99 +..+zzzyyyxxxwwwvvvuuuttttsssrrrqqqppppooonnnnmmmmlllkkkkjjjjiiiiihhhhgggggffffffeeeeeedddddddcccccccccbbbbbbbbbbbbbbbbaaaaaaaaa
(PID.TID 0000.0001) //     98 +..+zzzyyyxxxwwwvvvuuuttttsssrrrqqqqpppooonnnnmmmmllllkkkkjjjjiiiihhhhhgggggfffffeeeeeeddddddddcccccccccbbbbbbbbbbbbbbbbbbbbbbbb
(PID.TID 0000.0001) //     97 +..+zzzyyyxxxwwwvvvuuuttttsssrrrqqqqpppoooonnnmmmmllllkkkkjjjjiiiiihhhhgggggffffffeeeeeedddddddccccccccccbbbbbbbbbbbbbbbbbbbbbbb
(PID.TID 0000.0001) //     96 +..+zzzyyyxxxwwwvvvuuuutttsssrrrqqqqpppoooonnnnmmmllllkkkkjjjjiiiiihhhhhgggggfffffeeeeeeedddddddcccccccccccbbbbbbbbbbbbbbbbbbbbb
(PID.TID 0000.0001) //     95 +..+zzzyyyxxxwwwvvvuuuutttsssrrrrqqqppppooonnnnmmmmlllkkkkkjjjjiiiihhhhhgggggffffffeeeeeeedddddddcccccccccccbbbbbbbbbbbbbbbbbbbb
(PID.TID 0000.0001) //     94 +..+zzzyyyxxxwwwvvvvuuutttsssrrrrqqqppppooonnnnmmmmllllkkkkjjjjiiiiihhhhhgggggffffffeeeeeeddddddddccccccccccccbbbbbbbbbbbbbbbbbb
(PID.TID 0000.0001) //     93 +..+zzzyyyxxxwwwvvvvuuutttssssrrrqqqppppoooonnnmmmmllllkkkkjjjjjiiiihhhhhgggggffffffeeeeeeedddddddddccccccccccccbbbbbbbbbbbbbbbb
(PID.TID 0000.0001) //     92 +..+zzzyyyxxxwwwvvvvuuutttssssrrrqqqqpppoooonnnnmmmllllkkkkkjjjjiiiiihhhhhgggggffffffeeeeeeedddddddddccccccccccccccbbbbbbbbbbbbb
(PID.TID 0000.0001) //     91 +..+zzzyyyxxxwwwwvvvuuutttssssrrrqqqqpppoooonnnnmmmmllllkkkkjjjjiiiiihhhhhggggggffffffeeeeeeedddddddddcccccccccccccccccbbbbbbbbb
(PID.TID 0000.0001) //     90 +..+zzzyyyxxxwwwwvvvuuuttttsssrrrrqqqppppooonnnnmmmmllllkkkkjjjjjiiiiihhhhhgggggfffffffeeeeeeeddddddddddcccccccccccccccccccccccc
(PID.TID 0000.0001) //     89 +..+zzzyyyxxxwwwwvvvuuuttttsssrrrrqqqppppoooonnnmmmmlllllkkkkjjjjiiiiihhhhhggggggfffffffeeeeeeedddddddddddcccccccccccccccccccccc
(PID.TID 0000.0001) //     88 +..+zzzyyyxxxxwwwvvvuuuutttsssrrrrqqqqpppoooonnnnmmmmllllkkkkjjjjjiiiiihhhhhggggggfffffffeeeeeeeeddddddddddccccccccccccccccccccc
(PID.TID 0000.0001) //     87 +..+zzzyyyxxxxwwwvvvuuuutttssssrrrqqqqpppoooonnnnmmmmllllkkkkkjjjjiiiiihhhhhhggggggfffffffeeeeeeeeddddddddddddcccccccccccccccccc
(PID.TID 0000.0001) //     86 +..+zzzyyyxxxxwwwvvvuuuutttssssrrrqqqqppppoooonnnnmmmmllllkkkkjjjjjiiiiihhhhhhggggggfffffffeeeeeeeedddddddddddddcccccccccccccccc
(PID.TID 0000.0001) //     85 +..+zzzyyyxxxxwwwvvvvuuutttssssrrrrqqqppppoooonnnnmmmmllllkkkkkjjjjjiiiiihhhhhgggggggfffffffeeeeeeeeedddddddddddddddcccccccccccc
(PID.TID 0000.0001) //     84 +..+zzzyyyxxxxwwwvvvvuuuttttsssrrrrqqqqpppoooonnnnmmmmlllllkkkkjjjjjiiiiihhhhhhgggggggfffffffeeeeeeeeeeddddddddddddddddddddccccc
(PID.TID 0000.0001) //     83 +..+zzzyyyyxxxwwwvvvvuuuttttsssrrrrqqqqppppoooonnnnmmmmllllkkkkkjjjjjiiiiihhhhhhgggggggfffffffeeeeeeeeeeeddddddddddddddddddddddd
(PID.TID 0000.0001) //     82 +..+zzzyyyyxxxwwwvvvvuuuttttssssrrrqqqqppppoooonnnnmmmmlllllkkkkkjjjjjiiiiihhhhhhgggggggffffffffeeeeeeeeeeeddddddddddddddddddddd
(PID.TID 0000.0001) //     81 +..+zzzyyyyxxxwwwwvvvuuuutttssssrrrrqqqppppoooonnnnnmmmmllllkkkkkjjjjjiiiiiihhhhhhgggggggffffffffeeeeeeeeeeeeddddddddddddddddddd
(PID.TID 0000.0001) //     80 +..+zzzyyyyxxxwwwwvvvuuuutttssssrrrrqqqqppppoooonnnnmmmmlllllkkkkkjjjjjiiiiiihhhhhhgggggggfffffffffeeeeeeeeeeeeeeddddddddddddddd
(PID.TID 0000.0001) //     79 +..+zzzyyyyxxxwwwwvvvuuuuttttsssrrrrqqqqppppoooonnnnmmmmmlllllkkkkjjjjjjiiiiiihhhhhhgggggggffffffffffeeeeeeeeeeeeeeeeddddddddddd
(PID.TID 0000.0001) //     78 +..+zzzyyyyxxxwwwwvvvvuuuttttssssrrrrqqqppppooooonnnnmmmmlllllkkkkkjjjjjjiiiiihhhhhhhggggggggffffffffffeeeeeeeeeeeeeeeeeeeeeeeee
(PID.TID 0000.0001) //     77 +..+zzzyyyyxxxxwwwvvvvuuuttttssssrrrrqqqqppppoooonnnnmmmmmlllllkkkkkjjjjjiiiiiihhhhhhhggggggggfffffffffffeeeeeeeeeeeeeeeeeeeeeee
(PID.TID 0000.0001) //     76 +..+zzzyyyyxxxxwwwvvvvuuuutttssssrrrrqqqqppppooooonnnnmmmmmlllllkkkkkjjjjjiiiiiiihhhhhhhggggggggffffffffffffeeeeeeeeeeeeeeeeeeee
(PID.TID 0000.0001) //     75 +..+zzzyyyyxxxxwwwvvvvuuuuttttssssrrrrqqqqppppoooonnnnnmmmmlllllkkkkkkjjjjjiiiiiiihhhhhhhgggggggggffffffffffffffeeeeeeeeeeeeeeee
(PID.TID 0000.0001) //     74 +..+zzzzyyyxxxxwwwwvvvuuuuttttssssrrrrqqqqppppooooonnnnmmmmmlllllkkkkkjjjjjjiiiiiiihhhhhhhggggggggggffffffffffffffffeeeeeeeeeeee
(PID.TID 0000.0001) //     73 +..+zzzzyyyxxxxwwwwvvvvuuuttttssssrrrrqqqqpppppoooonnnnnmmmmmlllllkkkkkjjjjjjiiiiiiihhhhhhhhggggggggggffffffffffffffffffffffffff
(PID.TID 0000.0001) //     72 +..+zzzzyyyxxxxwwwwvvvvuuuuttttssssrrrrqqqqppppooooonnnnmmmmmllllllkkkkkjjjjjjiiiiiiihhhhhhhhhgggggggggggfffffffffffffffffffffff
(PID.TID 0000.0001) //     71 +..+zzzzyyyxxxxwwwwvvvvuuuuttttssssrrrrqqqqpppppoooonnnnnmmmmmlllllkkkkkkjjjjjjjiiiiiiihhhhhhhhhggggggggggggffffffffffffffffffff
(PID.TID 0000.0001) //     70 +..+zzzzyyyyxxxwwwwvvvvuuuuttttssssrrrrqqqqqppppooooonnnnnmmmmmlllllkkkkkkjjjjjjjiiiiiiihhhhhhhhhhggggggggggggggffffffffffffffff
(PID.TID 0000.0001) //     69 +..+zzzzyyyyxxxxwwwvvvvuuuuttttsssssrrrrqqqqpppppooooonnnnmmmmmmlllllkkkkkkjjjjjjjiiiiiiiihhhhhhhhhhggggggggggggggggggffffffffff
(PID.TID 0000.0001) //     68 +..+zzzzyyyyxxxxwwwwvvvvuuuuttttssssrrrrqqqqqppppooooonnnnnmmmmmmlllllkkkkkkkjjjjjjjiiiiiiiihhhhhhhhhhhggggggggggggggggggggggggg
(PID.TID 0000.0001) //     67 +..+zzzzyyyyxxxxwwwwvvvvuuuuttttssssrrrrrqqqqpppppooooonnnnnmmmmmllllllkkkkkkkjjjjjjjiiiiiiiiihhhhhhhhhhhhgggggggggggggggggggggg
(PID.TID 0000.0001) //     66 +..+zzzzyyyyxxxxwwwwvvvvuuuutttttssssrrrrqqqqqpppppooooonnnnnmmmmmllllllkkkkkkkjjjjjjjjiiiiiiiiihhhhhhhhhhhhhhgggggggggggggggggg
(PID.TID 0000.0001) //     65 +..+zzzzyyyyxxxxwwwwvvvvuuuuuttttssssrrrrrqqqqpppppooooonnnnnnmmmmmlllllllkkkkkkjjjjjjjjiiiiiiiiiiihhhhhhhhhhhhhhhhggggggggggggg
(PID.TID 0000.0001) //     64 +..+zzzzyyyyxxxxwwwwvvvvvuuuuttttsssssrrrrqqqqqpppppooooonnnnnnmmmmmlllllllkkkkkkkjjjjjjjjiiiiiiiiiiihhhhhhhhhhhhhhhhhhhhhhhhhhh
(PID.TID 0000.0001) //     63 +..+zzzzyyyyxxxxxwwwwvvvvuuuutttttssssrrrrrqqqqqpppppooooonnnnnnmmmmmmllllllkkkkkkkkjjjjjjjjiiiiiiiiiiiiihhhhhhhhhhhhhhhhhhhhhhh
(PID.TID 0000.0001) //     62 +..+zzzzyyyyxxxxxwwwwvvvvuuuuuttttsssssrrrrqqqqqpppppoooooonnnnnnmmmmmmlllllllkkkkkkkjjjjjjjjjjiiiiiiiiiiiiihhhhhhhhhhhhhhhhhhhh
(PID.TID 0000.0001) //     61 +..+zzzzyyyyyxxxxwwwwvvvvvuuuutttttssssrrrrrqqqqqpppppoooooonnnnnnmmmmmmlllllllkkkkkkkkjjjjjjjjjjiiiiiiiiiiiiiiiiihhhhhhhhhhhhhh
(PID.TID 0000.0001) //     60 +..+zzzzyyyyyxxxxwwwwvvvvvuuuutttttsssssrrrrrqqqqqpppppoooooonnnnnnmmmmmmllllllllkkkkkkkkjjjjjjjjjjjiiiiiiiiiiiiiiiiiiiiiiiiiiii
(PID.TID 0000.0001) //     59 +..+zzzzzyyyyxxxxwwwwwvvvvuuuuutttttssssrrrrrqqqqqqpppppoooooonnnnnnmmmmmmmlllllllkkkkkkkkkjjjjjjjjjjjjjiiiiiiiiiiiiiiiiiiiiiiii
(PID.TID 0000.0001) //     58 +..+zzzzzyyyyxxxxxwwwwvvvvvuuuutttttsssssrrrrrqqqqqppppppoooooonnnnnnmmmmmmmllllllllkkkkkkkkkkjjjjjjjjjjjjjjiiiiiiiiiiiiiiiiiiii
(PID.TID 0000.0001) //     57 +..+zzzzzyyyyxxxxxwwwwvvvvvuuuuutttttsssssrrrrrqqqqqppppppoooooonnnnnnmmmmmmmmllllllllkkkkkkkkkkkjjjjjjjjjjjjjjjjjiiiiiiiiiiiiii
(PID.TID 0000.0001) //     56 +..+zzzzzyyyyxxxxxwwwwwvvvvuuuuutttttsssssrrrrrqqqqqqppppppoooooonnnnnnnmmmmmmmlllllllllkkkkkkkkkkkkjjjjjjjjjjjjjjjjjjjjjjjjjjjj
(PID.TID 0000.0001) //     55 +..+zzzzzyyyyyxxxxwwwwwvvvvvuuuuutttttsssssrrrrrqqqqqqppppppoooooonnnnnnnmmmmmmmmllllllllllkkkkkkkkkkkkkjjjjjjjjjjjjjjjjjjjjjjjj
(PID.TID 0000.0001) //     54 +..+zzzzzyyyyyxxxxxwwwwvvvvvuuuuutttttssssssrrrrrqqqqqqppppppooooooonnnnnnnmmmmmmmmllllllllllkkkkkkkkkkkkkkkjjjjjjjjjjjjjjjjjjjj
(PID.TID 0000.0001) //     53 +..+zzzzzyyyyyxxxxxwwwwwvvvvvuuuuutttttsssssrrrrrrqqqqqqppppppooooooonnnnnnnnmmmmmmmmlllllllllllkkkkkkkkkkkkkkkkkkkjjjjjjjjjjjjj
(PID.TID 0000.0001) //     52 +..+zzzzzyyyyyxxxxxwwwwwvvvvvuuuuuttttttsssssrrrrrrqqqqqqppppppoooooooonnnnnnnmmmmmmmmmmllllllllllllkkkkkkkkkkkkkkkkkkkkkkkkkkkk
(PID.TID 0000.0001) //     51 +..++zzzzyyyyyxxxxxwwwwwvvvvvvuuuuutttttssssssrrrrrrqqqqqqpppppppooooooonnnnnnnnmmmmmmmmmmllllllllllllllkkkkkkkkkkkkkkkkkkkkkkkk
(PID.TID 0000.0001) //     50 +..++zzzzzyyyyyxxxxxwwwwwvvvvvuuuuuttttttssssssrrrrrrqqqqqqpppppppoooooooonnnnnnnnnmmmmmmmmmmlllllllllllllllllkkkkkkkkkkkkkkkkkk
(PID.TID 0000.0001) //     49 +..++zzzzzyyyyyxxxxxwwwwwvvvvvvuuuuuttttttssssssrrrrrrqqqqqqqpppppppoooooooonnnnnnnnnmmmmmmmmmmmmllllllllllllllllllllllkkkkkkkkk
(PID.TID 0000.0001) //     48 +..++zzzzzyyyyyxxxxxwwwwwwvvvvvuuuuuuttttttssssssrrrrrrqqqqqqqpppppppooooooooonnnnnnnnnnmmmmmmmmmmmmmlllllllllllllllllllllllllll
(PID.TID 0000.0001) //     47 +..++zzzzzyyyyyxxxxxxwwwwwvvvvvvuuuuuttttttsssssssrrrrrrqqqqqqqppppppppooooooooonnnnnnnnnnmmmmmmmmmmmmmmmmllllllllllllllllllllll
(PID.TID 0000.0001) //     46 +..++zzzzzyyyyyyxxxxxwwwwwwvvvvvuuuuuuttttttsssssssrrrrrrqqqqqqqqppppppppooooooooonnnnnnnnnnnnmmmmmmmmmmmmmmmmmmmlllllllllllllll
(PID.TID 0000.0001) //     45 +..++zzzzzyyyyyyxxxxxwwwwwwvvvvvvuuuuuuttttttsssssssrrrrrrrqqqqqqqpppppppppoooooooooonnnnnnnnnnnnnmmmmmmmmmmmmmmmmmmmmmmmmmmmmmm
(PID.TID 0000.0001) //     44 +..++zzzzzyyyyyyxxxxxxwwwwwwvvvvvvuuuuuuttttttsssssssrrrrrrrqqqqqqqqpppppppppooooooooooonnnnnnnnnnnnnnmmmmmmmmmmmmmmmmmmmmmmmmmm
(PID.TID 0000.0001) //     43 +..++zzzzzzyyyyyxxxxxxwwwwwwvvvvvvuuuuuuuttttttsssssssrrrrrrrrqqqqqqqqpppppppppoooooooooooonnnnnnnnnnnnnnnnnnmmmmmmmmmmmmmmmmmmm
(PID.TID 0000.0001) //     42 +..++zzzzzzyyyyyyxxxxxxwwwwwwvvvvvvuuuuuuuttttttssssssssrrrrrrrqqqqqqqqqppppppppppooooooooooooonnnnnnnnnnnnnnnnnnnnnnnnnmmmmmmmm
(PID.TID 0000.0001) //     41 +..++zzzzzzyyyyyyxxxxxxwwwwwwvvvvvvvuuuuuuutttttttsssssssrrrrrrrrqqqqqqqqqpppppppppppoooooooooooooonnnnnnnnnnnnnnnnnnnnnnnnnnnnn
(PID.TID 0000.0001) //     40 +..++zzzzzzyyyyyyxxxxxxxwwwwwwvvvvvvvuuuuuuutttttttssssssssrrrrrrrrqqqqqqqqqqpppppppppppooooooooooooooooonnnnnnnnnnnnnnnnnnnnnnn
(PID.TID 0000.0001) //     39 +..++zzzzzzyyyyyyyxxxxxxwwwwwwwvvvvvvvuuuuuuutttttttssssssssrrrrrrrrrqqqqqqqqqqpppppppppppppoooooooooooooooooooooonnnnnnnnnnnnnn
(PID.TID 0000.0001) //     38 +..++zzzzzzzyyyyyyxxxxxxxwwwwwwwvvvvvvvuuuuuuuttttttttssssssssrrrrrrrrrqqqqqqqqqqqpppppppppppppppooooooooooooooooooooooooooooooo
(PID.TID 0000.0001) //     37 +..++zzzzzzzyyyyyyyxxxxxxwwwwwwwvvvvvvvvuuuuuuuttttttttsssssssssrrrrrrrrrrqqqqqqqqqqqqppppppppppppppppoooooooooooooooooooooooooo
(PID.TID 0000.0001) //     36 +..++zzzzzzzyyyyyyyxxxxxxxwwwwwwwvvvvvvvvuuuuuuutttttttttsssssssssrrrrrrrrrrrqqqqqqqqqqqqqppppppppppppppppppppoooooooooooooooooo
(PID.TID 0000.0001) //     35 +..+++zzzzzzyyyyyyyyxxxxxxxwwwwwwwvvvvvvvvuuuuuuuutttttttttsssssssssrrrrrrrrrrrrqqqqqqqqqqqqqqpppppppppppppppppppppppppppppppppp
(PID.TID 0000.0001) //     34 +..+++zzzzzzzyyyyyyyxxxxxxxwwwwwwwwvvvvvvvvuuuuuuuuttttttttttssssssssssrrrrrrrrrrrrqqqqqqqqqqqqqqqqqpppppppppppppppppppppppppppp
(PID.TID 0000.0001) //     33 +..+++zzzzzzzyyyyyyyyxxxxxxxwwwwwwwwvvvvvvvvuuuuuuuuuttttttttttsssssssssssrrrrrrrrrrrrrqqqqqqqqqqqqqqqqqqqqqpppppppppppppppppppp
(PID.TID 0000.0001) //     32 +..+++zzzzzzzyyyyyyyyxxxxxxxxwwwwwwwwvvvvvvvvvuuuuuuuuuttttttttttssssssssssssrrrrrrrrrrrrrrrqqqqqqqqqqqqqqqqqqqqqqqqqqqqqqqqqqqq
(PID.TID 0000.0001) //     31 +..+++zzzzzzzzyyyyyyyyxxxxxxxxwwwwwwwwvvvvvvvvvuuuuuuuuuutttttttttttssssssssssssrrrrrrrrrrrrrrrrrqqqqqqqqqqqqqqqqqqqqqqqqqqqqqqq
(PID.TID 0000.0001) //     30 +..+++zzzzzzzzyyyyyyyyxxxxxxxxxwwwwwwwwwvvvvvvvvvuuuuuuuuuutttttttttttssssssssssssssrrrrrrrrrrrrrrrrrrrrrqqqqqqqqqqqqqqqqqqqqqqq
(PID.TID 0000.0001) //     29 +..+++zzzzzzzzzyyyyyyyyxxxxxxxxxwwwwwwwwwvvvvvvvvvvuuuuuuuuuutttttttttttttsssssssssssssssrrrrrrrrrrrrrrrrrrrrrrrrrrrrrrrqqqqqqqq
(PID.TID 0000.0001) //     28 +..+++zzzzzzzzzyyyyyyyyyxxxxxxxxxwwwwwwwwwvvvvvvvvvvvuuuuuuuuuuutttttttttttttssssssssssssssssssrrrrrrrrrrrrrrrrrrrrrrrrrrrrrrrrr
(PID.TID 0000.0001) //     27 +..++++zzzzzzzzzyyyyyyyyyxxxxxxxxxwwwwwwwwwwvvvvvvvvvvvuuuuuuuuuuuuttttttttttttttssssssssssssssssssssssrrrrrrrrrrrrrrrrrrrrrrrrr
(PID.TID 0000.0001) //     26 +..++++zzzzzzzzzyyyyyyyyyyxxxxxxxxxwwwwwwwwwwwvvvvvvvvvvvuuuuuuuuuuuuuttttttttttttttttsssssssssssssssssssssssssssssssrrrrrrrrrrr
(PID.TID 0000.0001) //     25 +..++++zzzzzzzzzzyyyyyyyyyxxxxxxxxxxxwwwwwwwwwwwvvvvvvvvvvvvuuuuuuuuuuuuuuttttttttttttttttttssssssssssssssssssssssssssssssssssss
(PID.TID 0000.0001) //     24 +..++++zzzzzzzzzzyyyyyyyyyyyxxxxxxxxxxwwwwwwwwwwwwvvvvvvvvvvvvvuuuuuuuuuuuuuuutttttttttttttttttttttttsssssssssssssssssssssssssss
(PID.TID 0000.0001) //     23 +..++++zzzzzzzzzzzyyyyyyyyyyyxxxxxxxxxxxwwwwwwwwwwwwvvvvvvvvvvvvvvuuuuuuuuuuuuuuuuutttttttttttttttttttttttttttttttssssssssssssss
(PID.TID 0000.0001) //     22 +..+++++zzzzzzzzzzzyyyyyyyyyyyxxxxxxxxxxxxwwwwwwwwwwwwwvvvvvvvvvvvvvvvuuuuuuuuuuuuuuuuuuuutttttttttttttttttttttttttttttttttttttt
(PID.TID 0000.0001) //     21 +..+++++zzzzzzzzzzzyyyyyyyyyyyyxxxxxxxxxxxxxwwwwwwwwwwwwwwvvvvvvvvvvvvvvvvvuuuuuuuuuuuuuuuuuuuuuuutttttttttttttttttttttttttttttt
(PID.TID 0000.0001) //     20 +..+++++zzzzzzzzzzzzyyyyyyyyyyyyyxxxxxxxxxxxxxwwwwwwwwwwwwwwwvvvvvvvvvvvvvvvvvvvuuuuuuuuuuuuuuuuuuuuuuuuuuuuuuuuuttttttttttttttt
(PID.TID 0000.0001) //     19 +..++++++zzzzzzzzzzzzyyyyyyyyyyyyyyxxxxxxxxxxxxxxwwwwwwwwwwwwwwwwvvvvvvvvvvvvvvvvvvvvvvuuuuuuuuuuuuuuuuuuuuuuuuuuuuuuuuuuuuuuuuu
(PID.TID 0000.0001) //     18 +..++++++zzzzzzzzzzzzzyyyyyyyyyyyyyyyxxxxxxxxxxxxxxxwwwwwwwwwwwwwwwwwwvvvvvvvvvvvvvvvvvvvvvvvvvvuuuuuuuuuuuuuuuuuuuuuuuuuuuuuuuu
(PID.TID 0000.0001) //     17 +..++++++zzzzzzzzzzzzzzzyyyyyyyyyyyyyyyxxxxxxxxxxxxxxxxxwwwwwwwwwwwwwwwwwwwwvvvvvvvvvvvvvvvvvvvvvvvvvvvvvvvvvvvvuuuuuuuuuuuuuuuu
(PID.TID 0000.0001) //     16 +..+++++++zzzzzzzzzzzzzzzyyyyyyyyyyyyyyyyxxxxxxxxxxxxxxxxxxxwwwwwwwwwwwwwwwwwwwwwwwvvvvvvvvvvvvvvvvvvvvvvvvvvvvvvvvvvvvvvvvvvvvv
(PID.TID 0000.0001) //     15 +..+++++++zzzzzzzzzzzzzzzzzyyyyyyyyyyyyyyyyyxxxxxxxxxxxxxxxxxxxxxwwwwwwwwwwwwwwwwwwwwwwwwwwwwvvvvvvvvvvvvvvvvvvvvvvvvvvvvvvvvvvv
(PID.TID 0000.0001) //     14 +..++++++++zzzzzzzzzzzzzzzzzzyyyyyyyyyyyyyyyyyyyxxxxxxxxxxxxxxxxxxxxxxxwwwwwwwwwwwwwwwwwwwwwwwwwwwwwwwwwwwwwwwwvvvvvvvvvvvvvvvvv
(PID.TID 0000.0001) //     13 +..+++++++++zzzzzzzzzzzzzzzzzzzyyyyyyyyyyyyyyyyyyyyyxxxxxxxxxxxxxxxxxxxxxxxxxxxwwwwwwwwwwwwwwwwwwwwwwwwwwwwwwwwwwwwwwwwwwwwwwwww
(PID.TID 0000.0001) //     12 +..+++++++++zzzzzzzzzzzzzzzzzzzzzyyyyyyyyyyyyyyyyyyyyyyyyxxxxxxxxxxxxxxxxxxxxxxxxxxxxxxxxxwwwwwwwwwwwwwwwwwwwwwwwwwwwwwwwwwwwwww
(PID.TID 0000.0001) //     11 +..++++++++++zzzzzzzzzzzzzzzzzzzzzzzyyyyyyyyyyyyyyyyyyyyyyyyyyyxxxxxxxxxxxxxxxxxxxxxxxxxxxxxxxxxxxxxxxxxxxxxxxxwwwwwwwwwwwwwwwww
(PID.TID 0000.0001) //     10 +..++++++++++++zzzzzzzzzzzzzzzzzzzzzzzzzyyyyyyyyyyyyyyyyyyyyyyyyyyyyyyyyxxxxxxxxxxxxxxxxxxxxxxxxxxxxxxxxxxxxxxxxxxxxxxxxxxxxxxxx
(PID.TID 0000.0001) //      9 +..+++++++++++++zzzzzzzzzzzzzzzzzzzzzzzzzzzzzyyyyyyyyyyyyyyyyyyyyyyyyyyyyyyyyyyyyyyyyxxxxxxxxxxxxxxxxxxxxxxxxxxxxxxxxxxxxxxxxxxx
(PID.TID 0000.0001) //      8 +..+++++++++++++++zzzzzzzzzzzzzzzzzzzzzzzzzzzzzzzzzzyyyyyyyyyyyyyyyyyyyyyyyyyyyyyyyyyyyyyyyyyyyyyyyyyyyyyyyyyyyxxxxxxxxxxxxxxxxx
(PID.TID 0000.0001) //      7 +..++++++++++++++++++zzzzzzzzzzzzzzzzzzzzzzzzzzzzzzzzzzzzzzzzyyyyyyyyyyyyyyyyyyyyyyyyyyyyyyyyyyyyyyyyyyyyyyyyyyyyyyyyyyyyyyyyyyy
(PID.TID 0000.0001) //      6 +..+++++++++++++++++++++zzzzzzzzzzzzzzzzzzzzzzzzzzzzzzzzzzzzzzzzzzzzzzzzzzzzyyyyyyyyyyyyyyyyyyyyyyyyyyyyyyyyyyyyyyyyyyyyyyyyyyyy
(PID.TID 0000.0001) //      5 +..++++++++++++++++++++++++++zzzzzzzzzzzzzzzzzzzzzzzzzzzzzzzzzzzzzzzzzzzzzzzzzzzzzzzzzzzzzzzzzzzzzzzzzzzzzzzzzzzyyyyyyyyyyyyyyyy
(PID.TID 0000.0001) //      4 +..++++++++++++++++++++++++++++++++++zzzzzzzzzzzzzzzzzzzzzzzzzzzzzzzzzzzzzzzzzzzzzzzzzzzzzzzzzzzzzzzzzzzzzzzzzzzzzzzzzzzzzzzzzzz
(PID.TID 0000.0001) //      3 +..++++++++++++++++++++++++++++++++++++++++++++++++++zzzzzzzzzzzzzzzzzzzzzzzzzzzzzzzzzzzzzzzzzzzzzzzzzzzzzzzzzzzzzzzzzzzzzzzzzzz
(PID.TID 0000.0001) //      2 ................................................................................................................................
(PID.TID 0000.0001) //      1 ................................................................................................................................
(PID.TID 0000.0001) //      0 ................................................................................................................................
(PID.TID 0000.0001) //     -1 +..++++++++++++++++++++++++++++++++++++++++++++++++++zzzzzzzzzzzzzzzzzzzzzzzzzzzzzzzzzzzzzzzzzzzzzzzzzzzzzzzzzzzzzzzzzzzzzzzzzzz
(PID.TID 0000.0001) // =======================================================
(PID.TID 0000.0001) // END OF FIELD                                          =
(PID.TID 0000.0001) // =======================================================
(PID.TID 0000.0001) 
(PID.TID 0000.0001) GAD_INIT_FIXED: GAD_OlMinSize=  0  0  1
(PID.TID 0000.0001) 
(PID.TID 0000.0001) // ===================================
(PID.TID 0000.0001) // GAD parameters :
(PID.TID 0000.0001) // ===================================
(PID.TID 0000.0001) tempAdvScheme =   /* Temp. Horiz.Advection scheme selector */
(PID.TID 0000.0001)                       2
(PID.TID 0000.0001)     ;
(PID.TID 0000.0001) tempVertAdvScheme =   /* Temp. Vert. Advection scheme selector */
(PID.TID 0000.0001)                       2
(PID.TID 0000.0001)     ;
(PID.TID 0000.0001) tempMultiDimAdvec =   /* use Muti-Dim Advec method for Temp */
(PID.TID 0000.0001)                   F
(PID.TID 0000.0001)     ;
(PID.TID 0000.0001) tempSOM_Advection = /* use 2nd Order Moment Advection for Temp */
(PID.TID 0000.0001)                   F
(PID.TID 0000.0001)     ;
(PID.TID 0000.0001) AdamsBashforthGt = /* apply Adams-Bashforth extrapolation on Gt */
(PID.TID 0000.0001)                   F
(PID.TID 0000.0001)     ;
(PID.TID 0000.0001) AdamsBashforth_T = /* apply Adams-Bashforth extrapolation on Temp */
(PID.TID 0000.0001)                   F
(PID.TID 0000.0001)     ;
(PID.TID 0000.0001) saltAdvScheme =   /* Salt. Horiz.advection scheme selector */
(PID.TID 0000.0001)                       2
(PID.TID 0000.0001)     ;
(PID.TID 0000.0001) saltVertAdvScheme =   /* Salt. Vert. Advection scheme selector */
(PID.TID 0000.0001)                       2
(PID.TID 0000.0001)     ;
(PID.TID 0000.0001) saltMultiDimAdvec =   /* use Muti-Dim Advec method for Salt */
(PID.TID 0000.0001)                   F
(PID.TID 0000.0001)     ;
(PID.TID 0000.0001) saltSOM_Advection = /* use 2nd Order Moment Advection for Salt */
(PID.TID 0000.0001)                   F
(PID.TID 0000.0001)     ;
(PID.TID 0000.0001) AdamsBashforthGs = /* apply Adams-Bashforth extrapolation on Gs */
(PID.TID 0000.0001)                   F
(PID.TID 0000.0001)     ;
(PID.TID 0000.0001) AdamsBashforth_S = /* apply Adams-Bashforth extrapolation on Salt */
(PID.TID 0000.0001)                   F
(PID.TID 0000.0001)     ;
(PID.TID 0000.0001) // ===================================
(PID.TID 0000.0001) %MON fCori_max                    =   9.4650000000000E-05
(PID.TID 0000.0001) %MON fCori_min                    =   6.9950000000000E-05
(PID.TID 0000.0001) %MON fCori_mean                   =   8.2300000000001E-05
(PID.TID 0000.0001) %MON fCori_sd                     =   7.1590851370829E-06
(PID.TID 0000.0001) %MON fCoriG_max                   =   9.4600000000000E-05
(PID.TID 0000.0001) %MON fCoriG_min                   =   6.9900000000000E-05
(PID.TID 0000.0001) %MON fCoriG_mean                  =   8.2250000000000E-05
(PID.TID 0000.0001) %MON fCoriG_sd                    =   7.1590851370829E-06
(PID.TID 0000.0001) %MON fCoriCos_max                 =   0.0000000000000E+00
(PID.TID 0000.0001) %MON fCoriCos_min                 =   0.0000000000000E+00
(PID.TID 0000.0001) %MON fCoriCos_mean                =   0.0000000000000E+00
(PID.TID 0000.0001) %MON fCoriCos_sd                  =   0.0000000000000E+00
(PID.TID 0000.0001) INI_CG2D: CG2D normalisation factor =  2.0001203197379843E-04
(PID.TID 0000.0001) 
(PID.TID 0000.0001) // =======================================================
(PID.TID 0000.0001) // Model configuration
(PID.TID 0000.0001) // =======================================================
(PID.TID 0000.0001) //
(PID.TID 0000.0001) // "Physical" paramters ( PARM01 in namelist )
(PID.TID 0000.0001) //
(PID.TID 0000.0001) buoyancyRelation = /* Type of relation to get Buoyancy */
(PID.TID 0000.0001)               'OCEANIC'
(PID.TID 0000.0001)     ;
(PID.TID 0000.0001) fluidIsAir   =  /* fluid major constituent is Air */
(PID.TID 0000.0001)                   F
(PID.TID 0000.0001)     ;
(PID.TID 0000.0001) fluidIsWater =  /* fluid major constituent is Water */
(PID.TID 0000.0001)                   T
(PID.TID 0000.0001)     ;
(PID.TID 0000.0001) usingPCoords =  /* use p (or p*) vertical coordinate */
(PID.TID 0000.0001)                   F
(PID.TID 0000.0001)     ;
(PID.TID 0000.0001) usingZCoords =  /* use z (or z*) vertical coordinate */
(PID.TID 0000.0001)                   T
(PID.TID 0000.0001)     ;
(PID.TID 0000.0001) tRef =   /* Reference temperature profile ( oC or K ) */
(PID.TID 0000.0001)                 2.000000000000000E+01       /* K =  1 */
(PID.TID 0000.0001)     ;
(PID.TID 0000.0001) sRef =   /* Reference salinity profile ( psu ) */
(PID.TID 0000.0001)                 3.000000000000000E+01       /* K =  1 */
(PID.TID 0000.0001)     ;
(PID.TID 0000.0001) useStrainTensionVisc= /* Use StrainTension Form of Viscous Operator */
(PID.TID 0000.0001)                   F
(PID.TID 0000.0001)     ;
(PID.TID 0000.0001) useVariableVisc = /* Use variable horizontal viscosity */
(PID.TID 0000.0001)                   F
(PID.TID 0000.0001)     ;
(PID.TID 0000.0001) useHarmonicVisc = /* Use harmonic horizontal viscosity */
(PID.TID 0000.0001)                   T
(PID.TID 0000.0001)     ;
(PID.TID 0000.0001) useBiharmonicVisc= /* Use biharmonic horiz.  viscosity */
(PID.TID 0000.0001)                   F
(PID.TID 0000.0001)     ;
(PID.TID 0000.0001) useSmag3D = /* Use isotropic 3-D Smagorinsky viscosity */
(PID.TID 0000.0001)                   F
(PID.TID 0000.0001)     ;
(PID.TID 0000.0001) viscAh  =   /* Lateral harmonic viscosity ( m^2/s ) */
(PID.TID 0000.0001)                 4.000000000000000E+02
(PID.TID 0000.0001)     ;
(PID.TID 0000.0001) viscA4  =   /* Lateral biharmonic viscosity ( m^4/s ) */
(PID.TID 0000.0001)                 0.000000000000000E+00
(PID.TID 0000.0001)     ;
(PID.TID 0000.0001) no_slip_sides =  /* Viscous BCs: No-slip sides */
(PID.TID 0000.0001)                   T
(PID.TID 0000.0001)     ;
(PID.TID 0000.0001) sideDragFactor = /* side-drag scaling factor (non-dim) */
(PID.TID 0000.0001)                 2.000000000000000E+00
(PID.TID 0000.0001)     ;
(PID.TID 0000.0001) viscArNr = /* vertical profile of vertical viscosity ( m^2/s )*/
(PID.TID 0000.0001)                 0.000000000000000E+00       /* K =  1 */
(PID.TID 0000.0001)     ;
(PID.TID 0000.0001) no_slip_bottom =  /* Viscous BCs: No-slip bottom */
(PID.TID 0000.0001)                   T
(PID.TID 0000.0001)     ;
(PID.TID 0000.0001) bottomVisc_pCell = /* Partial-cell in bottom Visc. BC */
(PID.TID 0000.0001)                   F
(PID.TID 0000.0001)     ;
(PID.TID 0000.0001) bottomDragLinear = /* linear bottom-drag coefficient ( m/s ) */
(PID.TID 0000.0001)                 0.000000000000000E+00
(PID.TID 0000.0001)     ;
(PID.TID 0000.0001) bottomDragQuadratic = /* quadratic bottom-drag coefficient (-) */
(PID.TID 0000.0001)                 0.000000000000000E+00
(PID.TID 0000.0001)     ;
(PID.TID 0000.0001) selectBotDragQuadr = /* select quadratic bottom drag options */
(PID.TID 0000.0001)                      -1
(PID.TID 0000.0001)     ;
(PID.TID 0000.0001) diffKhT =   /* Laplacian diffusion of heat laterally ( m^2/s ) */
(PID.TID 0000.0001)                 0.000000000000000E+00
(PID.TID 0000.0001)     ;
(PID.TID 0000.0001) diffK4T =   /* Biharmonic diffusion of heat laterally ( m^4/s ) */
(PID.TID 0000.0001)                 0.000000000000000E+00
(PID.TID 0000.0001)     ;
(PID.TID 0000.0001) diffKhS =   /* Laplacian diffusion of salt laterally ( m^2/s ) */
(PID.TID 0000.0001)                 0.000000000000000E+00
(PID.TID 0000.0001)     ;
(PID.TID 0000.0001) diffK4S =   /* Biharmonic diffusion of salt laterally ( m^4/s ) */
(PID.TID 0000.0001)                 0.000000000000000E+00
(PID.TID 0000.0001)     ;
(PID.TID 0000.0001) diffKrNrT = /* vertical profile of vertical diffusion of Temp ( m^2/s )*/
(PID.TID 0000.0001)                 0.000000000000000E+00       /* K =  1 */
(PID.TID 0000.0001)     ;
(PID.TID 0000.0001) diffKrNrS = /* vertical profile of vertical diffusion of Salt ( m^2/s )*/
(PID.TID 0000.0001)                 0.000000000000000E+00       /* K =  1 */
(PID.TID 0000.0001)     ;
(PID.TID 0000.0001) diffKrBL79surf = /* Surface diffusion for Bryan and Lewis 79 ( m^2/s ) */
(PID.TID 0000.0001)                 0.000000000000000E+00
(PID.TID 0000.0001)     ;
(PID.TID 0000.0001) diffKrBL79deep = /* Deep diffusion for Bryan and Lewis 1979 ( m^2/s ) */
(PID.TID 0000.0001)                 0.000000000000000E+00
(PID.TID 0000.0001)     ;
(PID.TID 0000.0001) diffKrBL79scl = /* Depth scale for Bryan and Lewis 1979 ( m ) */
(PID.TID 0000.0001)                 2.000000000000000E+02
(PID.TID 0000.0001)     ;
(PID.TID 0000.0001) diffKrBL79Ho = /* Turning depth for Bryan and Lewis 1979 ( m ) */
(PID.TID 0000.0001)                -2.000000000000000E+03
(PID.TID 0000.0001)     ;
(PID.TID 0000.0001) ivdc_kappa = /* Implicit Vertical Diffusivity for Convection ( m^2/s) */
(PID.TID 0000.0001)                 0.000000000000000E+00
(PID.TID 0000.0001)     ;
(PID.TID 0000.0001) hMixCriteria=  /* Criteria for mixed-layer diagnostic */
(PID.TID 0000.0001)                -8.000000000000000E-01
(PID.TID 0000.0001)     ;
(PID.TID 0000.0001) dRhoSmall =  /* Parameter for mixed-layer diagnostic */
(PID.TID 0000.0001)                 1.000000000000000E-06
(PID.TID 0000.0001)     ;
(PID.TID 0000.0001) hMixSmooth=  /* Smoothing parameter for mixed-layer diagnostic */
(PID.TID 0000.0001)                 0.000000000000000E+00
(PID.TID 0000.0001)     ;
(PID.TID 0000.0001) eosType =  /* Type of Equation of State */
(PID.TID 0000.0001)               'LINEAR'
(PID.TID 0000.0001)     ;
(PID.TID 0000.0001) tAlpha = /* Linear EOS thermal expansion coefficient ( 1/oC ) */
(PID.TID 0000.0001)                 2.000000000000000E-04
(PID.TID 0000.0001)     ;
(PID.TID 0000.0001) sBeta  = /* Linear EOS haline contraction coefficient ( 1/psu ) */
(PID.TID 0000.0001)                 7.400000000000000E-04
(PID.TID 0000.0001)     ;
(PID.TID 0000.0001) rhoNil    = /* Reference density for Linear EOS ( kg/m^3 ) */
(PID.TID 0000.0001)                 9.998000000000000E+02
(PID.TID 0000.0001)     ;
(PID.TID 0000.0001) selectP_inEOS_Zc = /* select pressure to use in EOS (0,1,2,3) */
(PID.TID 0000.0001)                       0
(PID.TID 0000.0001)     0= -g*rhoConst*z ; 1= pRef (from tRef,sRef); 2= Hyd P ; 3= Hyd+NH P
(PID.TID 0000.0001)     ;
(PID.TID 0000.0001) surf_pRef = /* Surface reference pressure ( Pa ) */
(PID.TID 0000.0001)                 1.013250000000000E+05
(PID.TID 0000.0001)     ;
(PID.TID 0000.0001) HeatCapacity_Cp =  /* Specific heat capacity ( J/kg/K ) */
(PID.TID 0000.0001)                 3.994000000000000E+03
(PID.TID 0000.0001)     ;
(PID.TID 0000.0001) celsius2K = /* 0 degree Celsius converted to Kelvin ( K ) */
(PID.TID 0000.0001)                 2.731500000000000E+02
(PID.TID 0000.0001)     ;
(PID.TID 0000.0001) rhoConst  = /* Reference density (Boussinesq)  ( kg/m^3 ) */
(PID.TID 0000.0001)                 1.027000000000000E+03
(PID.TID 0000.0001)     ;
(PID.TID 0000.0001) rhoFacC = /* normalized Reference density @ cell-Center (-) */
(PID.TID 0000.0001)                 1.000000000000000E+00       /* K =  1 */
(PID.TID 0000.0001)     ;
(PID.TID 0000.0001) rhoFacF = /* normalized Reference density @ W-Interface (-) */
(PID.TID 0000.0001)     2 @  1.000000000000000E+00              /* K =  1:  2 */
(PID.TID 0000.0001)     ;
(PID.TID 0000.0001) rhoConstFresh = /* Fresh-water reference density ( kg/m^3 ) */
(PID.TID 0000.0001)                 1.027000000000000E+03
(PID.TID 0000.0001)     ;
(PID.TID 0000.0001) gravity =   /* Gravitational acceleration ( m/s^2 ) */
(PID.TID 0000.0001)                 9.810000000000000E+00
(PID.TID 0000.0001)     ;
(PID.TID 0000.0001) gBaro =   /* Barotropic gravity ( m/s^2 ) */
(PID.TID 0000.0001)                 9.810000000000000E+00
(PID.TID 0000.0001)     ;
(PID.TID 0000.0001) gravFacC = /* gravity factor (vs surf.) @ cell-Center (-) */
(PID.TID 0000.0001)                 1.000000000000000E+00       /* K =  1 */
(PID.TID 0000.0001)     ;
(PID.TID 0000.0001) gravFacF = /* gravity factor (vs surf.) @ W-Interface (-) */
(PID.TID 0000.0001)     2 @  1.000000000000000E+00              /* K =  1:  2 */
(PID.TID 0000.0001)     ;
(PID.TID 0000.0001) rotationPeriod =   /* Rotation Period ( s ) */
(PID.TID 0000.0001)                 8.616400000000000E+04
(PID.TID 0000.0001)     ;
(PID.TID 0000.0001) omega =   /* Angular velocity ( rad/s ) */
(PID.TID 0000.0001)                 7.292123516990375E-05
(PID.TID 0000.0001)     ;
(PID.TID 0000.0001) f0 =   /* Reference coriolis parameter ( 1/s ) */
(PID.TID 0000.0001)                 6.999999999999999E-05
(PID.TID 0000.0001)     ;
(PID.TID 0000.0001) beta =   /* Beta ( 1/(m.s) ) */
(PID.TID 0000.0001)                 2.000000000000000E-11
(PID.TID 0000.0001)     ;
(PID.TID 0000.0001) fPrime =   /* Second coriolis parameter ( 1/s ) */
(PID.TID 0000.0001)                 0.000000000000000E+00
(PID.TID 0000.0001)     ;
(PID.TID 0000.0001) rigidLid =   /* Rigid lid on/off flag */
(PID.TID 0000.0001)                   F
(PID.TID 0000.0001)     ;
(PID.TID 0000.0001) implicitFreeSurface =   /* Implicit free surface on/off flag */
(PID.TID 0000.0001)                   T
(PID.TID 0000.0001)     ;
(PID.TID 0000.0001) freeSurfFac =   /* Implicit free surface factor */
(PID.TID 0000.0001)                 1.000000000000000E+00
(PID.TID 0000.0001)     ;
(PID.TID 0000.0001) implicSurfPress =  /* Surface Pressure implicit factor (0-1)*/
(PID.TID 0000.0001)                 1.000000000000000E+00
(PID.TID 0000.0001)     ;
(PID.TID 0000.0001) implicDiv2DFlow =  /* Barot. Flow Div. implicit factor (0-1)*/
(PID.TID 0000.0001)                 1.000000000000000E+00
(PID.TID 0000.0001)     ;
(PID.TID 0000.0001) uniformLin_PhiSurf = /* use uniform Bo_surf on/off flag*/
(PID.TID 0000.0001)                   T
(PID.TID 0000.0001)     ;
(PID.TID 0000.0001) uniformFreeSurfLev = /* free-surface level-index is uniform */
(PID.TID 0000.0001)                   T
(PID.TID 0000.0001)     ;
(PID.TID 0000.0001) hFacMin =   /* minimum partial cell factor (hFac) */
(PID.TID 0000.0001)                 1.000000000000000E-01
(PID.TID 0000.0001)     ;
(PID.TID 0000.0001) hFacMinDr = /* minimum partial cell thickness ( m) */
(PID.TID 0000.0001)                 0.000000000000000E+00
(PID.TID 0000.0001)     ;
(PID.TID 0000.0001) exactConserv =  /* Exact Volume Conservation on/off flag*/
(PID.TID 0000.0001)                   F
(PID.TID 0000.0001)     ;
(PID.TID 0000.0001) linFSConserveTr = /* Tracer correction for Lin Free Surface on/off flag*/
(PID.TID 0000.0001)                   F
(PID.TID 0000.0001)     ;
(PID.TID 0000.0001) nonlinFreeSurf = /* Non-linear Free Surf. options (-1,0,1,2,3)*/
(PID.TID 0000.0001)                       0
(PID.TID 0000.0001)      -1,0= Off ; 1,2,3= On, 2=+rescale gU,gV, 3=+update cg2d solv.
(PID.TID 0000.0001)     ;
(PID.TID 0000.0001) hFacInf =   /* lower threshold for hFac (nonlinFreeSurf only)*/
(PID.TID 0000.0001)                 2.000000000000000E-01
(PID.TID 0000.0001)     ;
(PID.TID 0000.0001) hFacSup =   /* upper threshold for hFac (nonlinFreeSurf only)*/
(PID.TID 0000.0001)                 2.000000000000000E+00
(PID.TID 0000.0001)     ;
(PID.TID 0000.0001) select_rStar = /* r* Vertical coord. options (=0 r coord.; >0 uses r*)*/
(PID.TID 0000.0001)                       0
(PID.TID 0000.0001)     ;
(PID.TID 0000.0001) useRealFreshWaterFlux = /* Real Fresh Water Flux on/off flag*/
(PID.TID 0000.0001)                   F
(PID.TID 0000.0001)     ;
(PID.TID 0000.0001) temp_EvPrRn = /* Temp. of Evap/Prec/R (UNSET=use local T)(oC)*/
(PID.TID 0000.0001)                 1.234567000000000E+05
(PID.TID 0000.0001)     ;
(PID.TID 0000.0001) salt_EvPrRn = /* Salin. of Evap/Prec/R (UNSET=use local S)(psu)*/
(PID.TID 0000.0001)                 0.000000000000000E+00
(PID.TID 0000.0001)     ;
(PID.TID 0000.0001) selectAddFluid = /* option for mass source/sink of fluid (=0: off) */
(PID.TID 0000.0001)                       0
(PID.TID 0000.0001)     ;
(PID.TID 0000.0001) temp_addMass = /* Temp. of addMass array (UNSET=use local T)(oC)*/
(PID.TID 0000.0001)                 1.234567000000000E+05
(PID.TID 0000.0001)     ;
(PID.TID 0000.0001) salt_addMass = /* Salin. of addMass array (UNSET=use local S)(psu)*/
(PID.TID 0000.0001)                 0.000000000000000E+00
(PID.TID 0000.0001)     ;
(PID.TID 0000.0001) convertFW2Salt = /* convert F.W. Flux to Salt Flux (-1=use local S)(psu)*/
(PID.TID 0000.0001)                 3.500000000000000E+01
(PID.TID 0000.0001)     ;
(PID.TID 0000.0001) use3Dsolver = /* use 3-D pressure solver on/off flag */
(PID.TID 0000.0001)                   F
(PID.TID 0000.0001)     ;
(PID.TID 0000.0001) nonHydrostatic =  /* Non-Hydrostatic on/off flag */
(PID.TID 0000.0001)                   F
(PID.TID 0000.0001)     ;
(PID.TID 0000.0001) nh_Am2 = /* Non-Hydrostatic terms scaling factor */
(PID.TID 0000.0001)                 1.000000000000000E+00
(PID.TID 0000.0001)     ;
(PID.TID 0000.0001) implicitNHPress = /* Non-Hyd Pressure implicit factor (0-1)*/
(PID.TID 0000.0001)                 1.000000000000000E+00
(PID.TID 0000.0001)     ;
(PID.TID 0000.0001) selectNHfreeSurf = /* Non-Hyd (free-)Surface option */
(PID.TID 0000.0001)                       0
(PID.TID 0000.0001)     ;
(PID.TID 0000.0001) quasiHydrostatic = /* Quasi-Hydrostatic on/off flag */
(PID.TID 0000.0001)                   F
(PID.TID 0000.0001)     ;
(PID.TID 0000.0001) calc_wVelocity = /* vertical velocity calculation on/off flag */
(PID.TID 0000.0001)                   T
(PID.TID 0000.0001)     ;
(PID.TID 0000.0001) momStepping =  /* Momentum equation on/off flag */
(PID.TID 0000.0001)                   T
(PID.TID 0000.0001)     ;
(PID.TID 0000.0001) vectorInvariantMomentum= /* Vector-Invariant Momentum on/off */
(PID.TID 0000.0001)                   F
(PID.TID 0000.0001)     ;
(PID.TID 0000.0001) momAdvection =  /* Momentum advection on/off flag */
(PID.TID 0000.0001)                   T
(PID.TID 0000.0001)     ;
(PID.TID 0000.0001) momViscosity =  /* Momentum viscosity on/off flag */
(PID.TID 0000.0001)                   T
(PID.TID 0000.0001)     ;
(PID.TID 0000.0001) momImplVertAdv= /* Momentum implicit vert. advection on/off*/
(PID.TID 0000.0001)                   F
(PID.TID 0000.0001)     ;
(PID.TID 0000.0001) implicitViscosity = /* Implicit viscosity on/off flag */
(PID.TID 0000.0001)                   F
(PID.TID 0000.0001)     ;
(PID.TID 0000.0001) selectImplicitDrag= /* Implicit bot Drag options (0,1,2)*/
(PID.TID 0000.0001)                       0
(PID.TID 0000.0001)     0= Expl. ; 1= Impl. on provis. Vel ; 2= Fully Impl (with surf.P)
(PID.TID 0000.0001)     ;
(PID.TID 0000.0001) metricTerms =  /* metric-Terms on/off flag */
(PID.TID 0000.0001)                   F
(PID.TID 0000.0001)     ;
(PID.TID 0000.0001) useNHMTerms = /* Non-Hydrostatic Metric-Terms on/off */
(PID.TID 0000.0001)                   F
(PID.TID 0000.0001)     ;
(PID.TID 0000.0001) selectCoriMap = /* Coriolis Map options (0,1,2,3)*/
(PID.TID 0000.0001)                       1
(PID.TID 0000.0001)     0= f-Plane ; 1= Beta-Plane ; 2= Spherical ; 3= read from file
(PID.TID 0000.0001)     ;
(PID.TID 0000.0001) use3dCoriolis = /* 3-D Coriolis on/off flag */
(PID.TID 0000.0001)                   F
(PID.TID 0000.0001)     ;
(PID.TID 0000.0001) useCoriolis =  /* Coriolis on/off flag */
(PID.TID 0000.0001)                   T
(PID.TID 0000.0001)     ;
(PID.TID 0000.0001) useCDscheme =  /* CD scheme on/off flag */
(PID.TID 0000.0001)                   F
(PID.TID 0000.0001)     ;
(PID.TID 0000.0001) selectCoriScheme= /* Scheme selector for Coriolis-Term */
(PID.TID 0000.0001)                       0
(PID.TID 0000.0001)    = 0 : original discretization (simple averaging, no hFac)
(PID.TID 0000.0001)    = 1 : Wet-point averaging (Jamar & Ozer 1986)
(PID.TID 0000.0001)    = 2 : energy conserving scheme (no hFac weight)
(PID.TID 0000.0001)    = 3 : energy conserving scheme using Wet-point averaging
(PID.TID 0000.0001)     ;
(PID.TID 0000.0001) momForcing =  /* Momentum forcing on/off flag */
(PID.TID 0000.0001)                   T
(PID.TID 0000.0001)     ;
(PID.TID 0000.0001) momTidalForcing = /* Momentum Tidal forcing on/off flag */
(PID.TID 0000.0001)                   T
(PID.TID 0000.0001)     ;
(PID.TID 0000.0001) momPressureForcing =  /* Momentum pressure term on/off flag */
(PID.TID 0000.0001)                   T
(PID.TID 0000.0001)     ;
(PID.TID 0000.0001) implicitIntGravWave= /* Implicit Internal Gravity Wave flag */
(PID.TID 0000.0001)                   F
(PID.TID 0000.0001)     ;
(PID.TID 0000.0001) staggerTimeStep =    /* Stagger time stepping on/off flag */
(PID.TID 0000.0001)                   F
(PID.TID 0000.0001)     ;
(PID.TID 0000.0001) doResetHFactors = /* reset thickness factors @ each time-step */
(PID.TID 0000.0001)                   F
(PID.TID 0000.0001)     ;
(PID.TID 0000.0001) multiDimAdvection =  /* enable/disable Multi-Dim Advection */
(PID.TID 0000.0001)                   T
(PID.TID 0000.0001)     ;
(PID.TID 0000.0001) useMultiDimAdvec =   /* Multi-Dim Advection is/is-not used */
(PID.TID 0000.0001)                   F
(PID.TID 0000.0001)     ;
(PID.TID 0000.0001) implicitDiffusion = /* Implicit Diffusion on/off flag */
(PID.TID 0000.0001)                   F
(PID.TID 0000.0001)     ;
(PID.TID 0000.0001) tempStepping =  /* Temperature equation on/off flag */
(PID.TID 0000.0001)                   F
(PID.TID 0000.0001)     ;
(PID.TID 0000.0001) tempAdvection = /* Temperature advection on/off flag */
(PID.TID 0000.0001)                   F
(PID.TID 0000.0001)     ;
(PID.TID 0000.0001) tempImplVertAdv = /* Temp. implicit vert. advection on/off */
(PID.TID 0000.0001)                   F
(PID.TID 0000.0001)     ;
(PID.TID 0000.0001) tempForcing  =  /* Temperature forcing on/off flag */
(PID.TID 0000.0001)                   F
(PID.TID 0000.0001)     ;
(PID.TID 0000.0001) doThetaClimRelax = /* apply SST relaxation on/off flag */
(PID.TID 0000.0001)                   F
(PID.TID 0000.0001)     ;
(PID.TID 0000.0001) tempIsActiveTr = /* Temp. is a dynamically Active Tracer */
(PID.TID 0000.0001)                   F
(PID.TID 0000.0001)     ;
(PID.TID 0000.0001) saltStepping =  /* Salinity equation on/off flag */
(PID.TID 0000.0001)                   F
(PID.TID 0000.0001)     ;
(PID.TID 0000.0001) saltAdvection = /* Salinity advection on/off flag */
(PID.TID 0000.0001)                   F
(PID.TID 0000.0001)     ;
(PID.TID 0000.0001) saltImplVertAdv = /* Sali. implicit vert. advection on/off */
(PID.TID 0000.0001)                   F
(PID.TID 0000.0001)     ;
(PID.TID 0000.0001) saltForcing  =  /* Salinity forcing on/off flag */
(PID.TID 0000.0001)                   F
(PID.TID 0000.0001)     ;
(PID.TID 0000.0001) doSaltClimRelax = /* apply SSS relaxation on/off flag */
(PID.TID 0000.0001)                   F
(PID.TID 0000.0001)     ;
(PID.TID 0000.0001) saltIsActiveTr = /* Salt  is a dynamically Active Tracer */
(PID.TID 0000.0001)                   F
(PID.TID 0000.0001)     ;
(PID.TID 0000.0001)  readBinaryPrec = /* Precision used for reading binary files */
(PID.TID 0000.0001)                      32
(PID.TID 0000.0001)     ;
(PID.TID 0000.0001) writeBinaryPrec = /* Precision used for writing binary files */
(PID.TID 0000.0001)                      32
(PID.TID 0000.0001)     ;
(PID.TID 0000.0001)  rwSuffixType =   /* select format of mds file suffix */
(PID.TID 0000.0001)                       0
(PID.TID 0000.0001)    = 0 : myIter (I10.10) ;   = 1 : 100*myTime (100th sec) ;
(PID.TID 0000.0001)    = 2 : myTime (seconds);   = 3 : myTime/360 (10th of hr);
(PID.TID 0000.0001)    = 4 : myTime/3600 (hours)
(PID.TID 0000.0001)     ;
(PID.TID 0000.0001)  globalFiles = /* write "global" (=not per tile) files */
(PID.TID 0000.0001)                   F
(PID.TID 0000.0001)     ;
(PID.TID 0000.0001)  useSingleCpuIO = /* only master MPI process does I/O */
(PID.TID 0000.0001)                   T
(PID.TID 0000.0001)     ;
(PID.TID 0000.0001)  useSingleCpuInput = /* only master process reads input */
(PID.TID 0000.0001)                   T
(PID.TID 0000.0001)     ;
(PID.TID 0000.0001) /* debLev[*]  : level of debug & auxiliary message printing */
(PID.TID 0000.0001) debLevZero =  0 ; /* level of disabled aux. msg printing */
(PID.TID 0000.0001)    debLevA =  1 ; /* level of minimum  aux. msg printing */
(PID.TID 0000.0001)    debLevB =  2 ; /* level of low aux. print (report read-file opening)*/
(PID.TID 0000.0001)    debLevC =  3 ; /* level of moderate debug prt (most pkgs debug msg) */
(PID.TID 0000.0001)    debLevD =  4 ; /* level of enhanced debug prt (add DEBUG_STATS prt) */
(PID.TID 0000.0001)    debLevE =  5 ; /* level of extensive debug printing */
(PID.TID 0000.0001) debugLevel =  /* select debug printing level */
(PID.TID 0000.0001)                       2
(PID.TID 0000.0001)     ;
(PID.TID 0000.0001)  plotLevel =  /* select PLOT_FIELD printing level */
(PID.TID 0000.0001)                       2
(PID.TID 0000.0001)     ;
(PID.TID 0000.0001) //
(PID.TID 0000.0001) // Elliptic solver(s) paramters ( PARM02 in namelist )
(PID.TID 0000.0001) //
(PID.TID 0000.0001) cg2dMaxIters =   /* Upper limit on 2d con. grad iterations  */
(PID.TID 0000.0001)                    1000
(PID.TID 0000.0001)     ;
(PID.TID 0000.0001) cg2dChkResFreq =   /* 2d con. grad convergence test frequency */
(PID.TID 0000.0001)                       1
(PID.TID 0000.0001)     ;
(PID.TID 0000.0001) cg2dUseMinResSol= /* use cg2d last-iter(=0) / min-resid.(=1) solution */
(PID.TID 0000.0001)                       0
(PID.TID 0000.0001)     ;
(PID.TID 0000.0001) cg2dTargetResidual =   /* 2d con. grad target residual  */
(PID.TID 0000.0001)                 1.000000000000000E-07
(PID.TID 0000.0001)     ;
(PID.TID 0000.0001) cg2dTargetResWunit =   /* CG2d target residual [W units] */
(PID.TID 0000.0001)                -1.000000000000000E+00
(PID.TID 0000.0001)     ;
(PID.TID 0000.0001) cg2dPreCondFreq =   /* Freq. for updating cg2d preconditioner */
(PID.TID 0000.0001)                       1
(PID.TID 0000.0001)     ;
(PID.TID 0000.0001) useSRCGSolver =  /* use single reduction CG solver(s) */
(PID.TID 0000.0001)                   F
(PID.TID 0000.0001)     ;
(PID.TID 0000.0001) printResidualFreq = /* Freq. for printing CG residual */
(PID.TID 0000.0001)                       0
(PID.TID 0000.0001)     ;
(PID.TID 0000.0001) //
(PID.TID 0000.0001) // Time stepping paramters ( PARM03 in namelist )
(PID.TID 0000.0001) //
(PID.TID 0000.0001) deltaTMom =   /* Momentum equation timestep ( s ) */
(PID.TID 0000.0001)                 5.400000000000000E+03
(PID.TID 0000.0001)     ;
(PID.TID 0000.0001) deltaTFreeSurf = /* FreeSurface equation timestep ( s ) */
(PID.TID 0000.0001)                 5.400000000000000E+03
(PID.TID 0000.0001)     ;
(PID.TID 0000.0001) dTtracerLev =  /* Tracer equation timestep ( s ) */
(PID.TID 0000.0001)                 5.400000000000000E+03       /* K =  1 */
(PID.TID 0000.0001)     ;
(PID.TID 0000.0001) deltaTClock  =   /* Model clock timestep ( s ) */
(PID.TID 0000.0001)                 5.400000000000000E+03
(PID.TID 0000.0001)     ;
(PID.TID 0000.0001) cAdjFreq =   /* Convective adjustment interval ( s ) */
(PID.TID 0000.0001)                 0.000000000000000E+00
(PID.TID 0000.0001)     ;
(PID.TID 0000.0001) momForcingOutAB = /* =1: take Momentum Forcing out of Adams-Bash. stepping */
(PID.TID 0000.0001)                       0
(PID.TID 0000.0001)     ;
(PID.TID 0000.0001) tracForcingOutAB = /* =1: take T,S,pTr Forcing out of Adams-Bash. stepping */
(PID.TID 0000.0001)                       0
(PID.TID 0000.0001)     ;
(PID.TID 0000.0001) momDissip_In_AB = /* put Dissipation Tendency in Adams-Bash. stepping */
(PID.TID 0000.0001)                   T
(PID.TID 0000.0001)     ;
(PID.TID 0000.0001) doAB_onGtGs = /* apply AB on Tendencies (rather than on T,S)*/
(PID.TID 0000.0001)                   T
(PID.TID 0000.0001)     ;
(PID.TID 0000.0001) abEps =   /* Adams-Bashforth-2 stabilizing weight */
(PID.TID 0000.0001)                 1.000000000000000E-02
(PID.TID 0000.0001)     ;
(PID.TID 0000.0001) applyExchUV_early = /* Apply EXCH to U,V earlier in time-step */
(PID.TID 0000.0001)                   F
(PID.TID 0000.0001)     ;
(PID.TID 0000.0001) pickupStrictlyMatch= /* stop if pickup do not strictly match */
(PID.TID 0000.0001)                   T
(PID.TID 0000.0001)     ;
(PID.TID 0000.0001) nIter0   =   /* Run starting timestep number */
(PID.TID 0000.0001)                       0
(PID.TID 0000.0001)     ;
(PID.TID 0000.0001) nTimeSteps = /* Number of timesteps */
(PID.TID 0000.0001)                     100
(PID.TID 0000.0001)     ;
(PID.TID 0000.0001) nEndIter =   /* Run ending timestep number */
(PID.TID 0000.0001)                     100
(PID.TID 0000.0001)     ;
(PID.TID 0000.0001) baseTime =   /* Model base time ( s ) */
(PID.TID 0000.0001)                 0.000000000000000E+00
(PID.TID 0000.0001)     ;
(PID.TID 0000.0001) startTime =  /* Run start time ( s ) */
(PID.TID 0000.0001)                 0.000000000000000E+00
(PID.TID 0000.0001)     ;
(PID.TID 0000.0001) endTime  =   /* Integration ending time ( s ) */
(PID.TID 0000.0001)                 5.400000000000000E+05
(PID.TID 0000.0001)     ;
(PID.TID 0000.0001) pChkPtFreq = /* Permanent restart/pickup file interval ( s ) */
(PID.TID 0000.0001)                 3.110400000000000E+07
(PID.TID 0000.0001)     ;
(PID.TID 0000.0001) chkPtFreq  = /* Rolling restart/pickup file interval ( s ) */
(PID.TID 0000.0001)                 2.592000000000000E+07
(PID.TID 0000.0001)     ;
(PID.TID 0000.0001) pickup_write_mdsio =   /* Model IO flag. */
(PID.TID 0000.0001)                   T
(PID.TID 0000.0001)     ;
(PID.TID 0000.0001) pickup_read_mdsio =   /* Model IO flag. */
(PID.TID 0000.0001)                   T
(PID.TID 0000.0001)     ;
(PID.TID 0000.0001) writePickupAtEnd =   /* Model IO flag. */
(PID.TID 0000.0001)                   T
(PID.TID 0000.0001)     ;
(PID.TID 0000.0001) dumpFreq =   /* Model state write out interval ( s ). */
(PID.TID 0000.0001)                 8.640000000000000E+05
(PID.TID 0000.0001)     ;
(PID.TID 0000.0001) dumpInitAndLast= /* write out Initial & Last iter. model state */
(PID.TID 0000.0001)                   T
(PID.TID 0000.0001)     ;
(PID.TID 0000.0001) snapshot_mdsio =   /* Model IO flag. */
(PID.TID 0000.0001)                   T
(PID.TID 0000.0001)     ;
(PID.TID 0000.0001) monitorFreq =   /* Monitor output interval ( s ). */
(PID.TID 0000.0001)                 8.640000000000000E+04
(PID.TID 0000.0001)     ;
(PID.TID 0000.0001) monitorSelect = /* select group of variables to monitor */
(PID.TID 0000.0001)                       2
(PID.TID 0000.0001)     ;
(PID.TID 0000.0001) monitor_stdio =   /* Model IO flag. */
(PID.TID 0000.0001)                   T
(PID.TID 0000.0001)     ;
(PID.TID 0000.0001) externForcingPeriod =   /* forcing period (s) */
(PID.TID 0000.0001)                 0.000000000000000E+00
(PID.TID 0000.0001)     ;
(PID.TID 0000.0001) externForcingCycle =   /* period of the cyle (s). */
(PID.TID 0000.0001)                 0.000000000000000E+00
(PID.TID 0000.0001)     ;
(PID.TID 0000.0001) tauThetaClimRelax =   /* relaxation time scale (s) */
(PID.TID 0000.0001)                 0.000000000000000E+00
(PID.TID 0000.0001)     ;
(PID.TID 0000.0001) tauSaltClimRelax =   /* relaxation time scale (s) */
(PID.TID 0000.0001)                 0.000000000000000E+00
(PID.TID 0000.0001)     ;
(PID.TID 0000.0001) latBandClimRelax =   /* max. Lat. where relaxation */
(PID.TID 0000.0001)                 3.720000000000000E+06
(PID.TID 0000.0001)     ;
(PID.TID 0000.0001) //
(PID.TID 0000.0001) // Gridding paramters ( PARM04 in namelist )
(PID.TID 0000.0001) //
(PID.TID 0000.0001) usingCartesianGrid = /* Cartesian coordinates flag ( True/False ) */
(PID.TID 0000.0001)                   T
(PID.TID 0000.0001)     ;
(PID.TID 0000.0001) usingCylindricalGrid = /* Cylindrical coordinates flag ( True/False ) */
(PID.TID 0000.0001)                   F
(PID.TID 0000.0001)     ;
(PID.TID 0000.0001) usingSphericalPolarGrid = /* Spherical coordinates flag ( True/False ) */
(PID.TID 0000.0001)                   F
(PID.TID 0000.0001)     ;
(PID.TID 0000.0001) usingCurvilinearGrid = /* Curvilinear coordinates flag ( True/False ) */
(PID.TID 0000.0001)                   F
(PID.TID 0000.0001)     ;
(PID.TID 0000.0001) useMin4hFacEdges = /* set hFacW,S as minimum of adjacent hFacC factor */
(PID.TID 0000.0001)                   F
(PID.TID 0000.0001)     ;
(PID.TID 0000.0001) interViscAr_pCell = /* account for partial-cell in interior vert. viscosity */
(PID.TID 0000.0001)                   F
(PID.TID 0000.0001)     ;
(PID.TID 0000.0001) interDiffKr_pCell = /* account for partial-cell in interior vert. diffusion */
(PID.TID 0000.0001)                   F
(PID.TID 0000.0001)     ;
(PID.TID 0000.0001) pCellMix_select = /* option to enhance mixing near surface & bottom */
(PID.TID 0000.0001)                       0
(PID.TID 0000.0001)     ;
(PID.TID 0000.0001) selectSigmaCoord = /* Hybrid-Sigma Vert. Coordinate option */
(PID.TID 0000.0001)                       0
(PID.TID 0000.0001)     ;
(PID.TID 0000.0001) rSigmaBnd = /* r/sigma transition ( units of r ==  m ) */
(PID.TID 0000.0001)                 1.234567000000000E+05
(PID.TID 0000.0001)     ;
(PID.TID 0000.0001) rkSign =   /* index orientation relative to vertical coordinate */
(PID.TID 0000.0001)                -1.000000000000000E+00
(PID.TID 0000.0001)     ;
(PID.TID 0000.0001) gravitySign = /* gravity orientation relative to vertical coordinate */
(PID.TID 0000.0001)                -1.000000000000000E+00
(PID.TID 0000.0001)     ;
(PID.TID 0000.0001) seaLev_Z =  /* reference height of sea-level [m] */
(PID.TID 0000.0001)                 0.000000000000000E+00
(PID.TID 0000.0001)     ;
(PID.TID 0000.0001) top_Pres =  /* reference pressure at the top [Pa] */
(PID.TID 0000.0001)                 0.000000000000000E+00
(PID.TID 0000.0001)     ;
(PID.TID 0000.0001) mass2rUnit = /* convert mass per unit area [kg/m2] to r-units [m] */
(PID.TID 0000.0001)                 9.737098344693282E-04
(PID.TID 0000.0001)     ;
(PID.TID 0000.0001) rUnit2mass = /* convert r-units [m] to mass per unit area [kg/m2] */
(PID.TID 0000.0001)                 1.027000000000000E+03
(PID.TID 0000.0001)     ;
(PID.TID 0000.0001) drC =   /* C spacing ( units of r ) */
(PID.TID 0000.0001)     2 @  2.500000000000000E+03              /* K =  1:  2 */
(PID.TID 0000.0001)     ;
(PID.TID 0000.0001) drF =   /* W spacing ( units of r ) */
(PID.TID 0000.0001)                 5.000000000000000E+03       /* K =  1 */
(PID.TID 0000.0001)     ;
(PID.TID 0000.0001) delX = /* U spacing ( m - cartesian, degrees - spherical ) */
(PID.TID 0000.0001)   248 @  5.000000000000000E+03              /* I =  1:248 */
(PID.TID 0000.0001)     ;
(PID.TID 0000.0001) delY = /* V spacing ( m - cartesian, degrees - spherical ) */
(PID.TID 0000.0001)   248 @  5.000000000000000E+03              /* J =  1:248 */
(PID.TID 0000.0001)     ;
(PID.TID 0000.0001) xgOrigin = /* X-axis origin of West  edge (cartesian: m, lat-lon: deg) */
(PID.TID 0000.0001)                -5.000000000000000E+03
(PID.TID 0000.0001)     ;
(PID.TID 0000.0001) ygOrigin = /* Y-axis origin of South edge (cartesian: m, lat-lon: deg) */
(PID.TID 0000.0001)                -5.000000000000000E+03
(PID.TID 0000.0001)     ;
(PID.TID 0000.0001) rSphere =  /* Radius ( ignored - cartesian, m - spherical ) */
(PID.TID 0000.0001)                 6.370000000000000E+06
(PID.TID 0000.0001)     ;
(PID.TID 0000.0001) deepAtmosphere = /* Deep/Shallow Atmosphere flag (True/False) */
(PID.TID 0000.0001)                   F
(PID.TID 0000.0001)     ;
(PID.TID 0000.0001) xC =  /* xC(:,1,:,1) : P-point X coord ( deg. or m if cartesian) */
(PID.TID 0000.0001)                -2.500000000000000E+03,      /* I =  1 */
(PID.TID 0000.0001)                 2.500000000000000E+03,      /* I =  2 */
(PID.TID 0000.0001)                 7.500000000000000E+03,      /* I =  3 */
(PID.TID 0000.0001)      . . .
(PID.TID 0000.0001)                 1.375000000000000E+05,      /* I = 29 */
(PID.TID 0000.0001)                 1.425000000000000E+05,      /* I = 30 */
(PID.TID 0000.0001)                 1.475000000000000E+05,      /* I = 31 */
(PID.TID 0000.0001)                 1.525000000000000E+05,      /* I = 32 */
(PID.TID 0000.0001)                 1.575000000000000E+05,      /* I = 33 */
(PID.TID 0000.0001)                 1.625000000000000E+05,      /* I = 34 */
(PID.TID 0000.0001)      . . .
(PID.TID 0000.0001)                 2.925000000000000E+05,      /* I = 60 */
(PID.TID 0000.0001)                 2.975000000000000E+05,      /* I = 61 */
(PID.TID 0000.0001)                 3.025000000000000E+05,      /* I = 62 */
(PID.TID 0000.0001)                 3.075000000000000E+05,      /* I = 63 */
(PID.TID 0000.0001)                 3.125000000000000E+05,      /* I = 64 */
(PID.TID 0000.0001)                 3.175000000000000E+05,      /* I = 65 */
(PID.TID 0000.0001)      . . .
(PID.TID 0000.0001)                 4.475000000000000E+05,      /* I = 91 */
(PID.TID 0000.0001)                 4.525000000000000E+05,      /* I = 92 */
(PID.TID 0000.0001)                 4.575000000000000E+05,      /* I = 93 */
(PID.TID 0000.0001)                 4.625000000000000E+05,      /* I = 94 */
(PID.TID 0000.0001)                 4.675000000000000E+05,      /* I = 95 */
(PID.TID 0000.0001)                 4.725000000000000E+05,      /* I = 96 */
(PID.TID 0000.0001)      . . .
(PID.TID 0000.0001)                 6.025000000000000E+05,      /* I =122 */
(PID.TID 0000.0001)                 6.075000000000000E+05,      /* I =123 */
(PID.TID 0000.0001)                 6.125000000000000E+05       /* I =124 */
(PID.TID 0000.0001)     ;
(PID.TID 0000.0001) yC =  /* yC(1,:,1,:) : P-point Y coord ( deg. or m if cartesian) */
(PID.TID 0000.0001)                -2.500000000000000E+03,      /* J =  1 */
(PID.TID 0000.0001)                 2.500000000000000E+03,      /* J =  2 */
(PID.TID 0000.0001)                 7.500000000000000E+03,      /* J =  3 */
(PID.TID 0000.0001)      . . .
(PID.TID 0000.0001)                 1.375000000000000E+05,      /* J = 29 */
(PID.TID 0000.0001)                 1.425000000000000E+05,      /* J = 30 */
(PID.TID 0000.0001)                 1.475000000000000E+05,      /* J = 31 */
(PID.TID 0000.0001)                 1.525000000000000E+05,      /* J = 32 */
(PID.TID 0000.0001)                 1.575000000000000E+05,      /* J = 33 */
(PID.TID 0000.0001)                 1.625000000000000E+05,      /* J = 34 */
(PID.TID 0000.0001)      . . .
(PID.TID 0000.0001)                 2.925000000000000E+05,      /* J = 60 */
(PID.TID 0000.0001)                 2.975000000000000E+05,      /* J = 61 */
(PID.TID 0000.0001)                 3.025000000000000E+05,      /* J = 62 */
(PID.TID 0000.0001)                 3.075000000000000E+05,      /* J = 63 */
(PID.TID 0000.0001)                 3.125000000000000E+05,      /* J = 64 */
(PID.TID 0000.0001)                 3.175000000000000E+05,      /* J = 65 */
(PID.TID 0000.0001)      . . .
(PID.TID 0000.0001)                 4.475000000000000E+05,      /* J = 91 */
(PID.TID 0000.0001)                 4.525000000000000E+05,      /* J = 92 */
(PID.TID 0000.0001)                 4.575000000000000E+05,      /* J = 93 */
(PID.TID 0000.0001)                 4.625000000000000E+05,      /* J = 94 */
(PID.TID 0000.0001)                 4.675000000000000E+05,      /* J = 95 */
(PID.TID 0000.0001)                 4.725000000000000E+05,      /* J = 96 */
(PID.TID 0000.0001)      . . .
(PID.TID 0000.0001)                 6.025000000000000E+05,      /* J =122 */
(PID.TID 0000.0001)                 6.075000000000000E+05,      /* J =123 */
(PID.TID 0000.0001)                 6.125000000000000E+05       /* J =124 */
(PID.TID 0000.0001)     ;
(PID.TID 0000.0001) rcoord = /* P-point R coordinate (  units of r ) */
(PID.TID 0000.0001)                -2.500000000000000E+03       /* K =  1 */
(PID.TID 0000.0001)     ;
(PID.TID 0000.0001) rF =   /* W-Interf. R coordinate (  units of r ) */
(PID.TID 0000.0001)                 0.000000000000000E+00,      /* K =  1 */
(PID.TID 0000.0001)                -5.000000000000000E+03       /* K =  2 */
(PID.TID 0000.0001)     ;
(PID.TID 0000.0001) deepFacC = /* deep-model grid factor @ cell-Center (-) */
(PID.TID 0000.0001)                 1.000000000000000E+00       /* K =  1 */
(PID.TID 0000.0001)     ;
(PID.TID 0000.0001) deepFacF = /* deep-model grid factor @ W-Interface (-) */
(PID.TID 0000.0001)     2 @  1.000000000000000E+00              /* K =  1:  2 */
(PID.TID 0000.0001)     ;
(PID.TID 0000.0001) rVel2wUnit = /* convert units: rVel -> wSpeed (=1 if z-coord)*/
(PID.TID 0000.0001)     2 @  1.000000000000000E+00              /* K =  1:  2 */
(PID.TID 0000.0001)     ;
(PID.TID 0000.0001) wUnit2rVel = /* convert units: wSpeed -> rVel (=1 if z-coord)*/
(PID.TID 0000.0001)     2 @  1.000000000000000E+00              /* K =  1:  2 */
(PID.TID 0000.0001)     ;
(PID.TID 0000.0001) dBdrRef = /* Vertical grad. of reference buoyancy [(m/s/r)^2] */
(PID.TID 0000.0001)                 0.000000000000000E+00       /* K =  1 */
(PID.TID 0000.0001)     ;
(PID.TID 0000.0001) rotateGrid = /* use rotated grid ( True/False ) */
(PID.TID 0000.0001)                   F
(PID.TID 0000.0001)     ;
(PID.TID 0000.0001) phiEuler = /* Euler angle, rotation about original z-coordinate [rad] */
(PID.TID 0000.0001)                 0.000000000000000E+00
(PID.TID 0000.0001)     ;
(PID.TID 0000.0001) thetaEuler = /* Euler angle, rotation about new x-coordinate [rad] */
(PID.TID 0000.0001)                 0.000000000000000E+00
(PID.TID 0000.0001)     ;
(PID.TID 0000.0001) psiEuler = /* Euler angle, rotation about new z-coordinate [rad] */
(PID.TID 0000.0001)                 0.000000000000000E+00
(PID.TID 0000.0001)     ;
(PID.TID 0000.0001) dxF =  /* dxF(:,1,:,1) ( units: m ) */
(PID.TID 0000.0001)   124 @  5.000000000000000E+03              /* I =  1:124 */
(PID.TID 0000.0001)     ;
(PID.TID 0000.0001) dxF =  /* dxF(1,:,1,:) ( units: m ) */
(PID.TID 0000.0001)   124 @  5.000000000000000E+03              /* J =  1:124 */
(PID.TID 0000.0001)     ;
(PID.TID 0000.0001) dyF =  /* dyF(:,1,:,1) ( units: m ) */
(PID.TID 0000.0001)   124 @  5.000000000000000E+03              /* I =  1:124 */
(PID.TID 0000.0001)     ;
(PID.TID 0000.0001) dyF =  /* dyF(1,:,1,:) ( units: m ) */
(PID.TID 0000.0001)   124 @  5.000000000000000E+03              /* J =  1:124 */
(PID.TID 0000.0001)     ;
(PID.TID 0000.0001) dxG =  /* dxG(:,1,:,1) ( units: m ) */
(PID.TID 0000.0001)   124 @  5.000000000000000E+03              /* I =  1:124 */
(PID.TID 0000.0001)     ;
(PID.TID 0000.0001) dxG =  /* dxG(1,:,1,:) ( units: m ) */
(PID.TID 0000.0001)   124 @  5.000000000000000E+03              /* J =  1:124 */
(PID.TID 0000.0001)     ;
(PID.TID 0000.0001) dyG =  /* dyG(:,1,:,1) ( units: m ) */
(PID.TID 0000.0001)   124 @  5.000000000000000E+03              /* I =  1:124 */
(PID.TID 0000.0001)     ;
(PID.TID 0000.0001) dyG =  /* dyG(1,:,1,:) ( units: m ) */
(PID.TID 0000.0001)   124 @  5.000000000000000E+03              /* J =  1:124 */
(PID.TID 0000.0001)     ;
(PID.TID 0000.0001) dxC =  /* dxC(:,1,:,1) ( units: m ) */
(PID.TID 0000.0001)   124 @  5.000000000000000E+03              /* I =  1:124 */
(PID.TID 0000.0001)     ;
(PID.TID 0000.0001) dxC =  /* dxC(1,:,1,:) ( units: m ) */
(PID.TID 0000.0001)   124 @  5.000000000000000E+03              /* J =  1:124 */
(PID.TID 0000.0001)     ;
(PID.TID 0000.0001) dyC =  /* dyC(:,1,:,1) ( units: m ) */
(PID.TID 0000.0001)   124 @  5.000000000000000E+03              /* I =  1:124 */
(PID.TID 0000.0001)     ;
(PID.TID 0000.0001) dyC =  /* dyC(1,:,1,:) ( units: m ) */
(PID.TID 0000.0001)   124 @  5.000000000000000E+03              /* J =  1:124 */
(PID.TID 0000.0001)     ;
(PID.TID 0000.0001) dxV =  /* dxV(:,1,:,1) ( units: m ) */
(PID.TID 0000.0001)   124 @  5.000000000000000E+03              /* I =  1:124 */
(PID.TID 0000.0001)     ;
(PID.TID 0000.0001) dxV =  /* dxV(1,:,1,:) ( units: m ) */
(PID.TID 0000.0001)   124 @  5.000000000000000E+03              /* J =  1:124 */
(PID.TID 0000.0001)     ;
(PID.TID 0000.0001) dyU =  /* dyU(:,1,:,1) ( units: m ) */
(PID.TID 0000.0001)   124 @  5.000000000000000E+03              /* I =  1:124 */
(PID.TID 0000.0001)     ;
(PID.TID 0000.0001) dyU =  /* dyU(1,:,1,:) ( units: m ) */
(PID.TID 0000.0001)   124 @  5.000000000000000E+03              /* J =  1:124 */
(PID.TID 0000.0001)     ;
(PID.TID 0000.0001) rA  =  /* rA (:,1,:,1) ( units: m^2 ) */
(PID.TID 0000.0001)   124 @  2.500000000000000E+07              /* I =  1:124 */
(PID.TID 0000.0001)     ;
(PID.TID 0000.0001) rA  =  /* rA (1,:,1,:) ( units: m^2 ) */
(PID.TID 0000.0001)   124 @  2.500000000000000E+07              /* J =  1:124 */
(PID.TID 0000.0001)     ;
(PID.TID 0000.0001) rAw =  /* rAw(:,1,:,1) ( units: m^2 ) */
(PID.TID 0000.0001)   124 @  2.500000000000000E+07              /* I =  1:124 */
(PID.TID 0000.0001)     ;
(PID.TID 0000.0001) rAw =  /* rAw(1,:,1,:) ( units: m^2 ) */
(PID.TID 0000.0001)   124 @  2.500000000000000E+07              /* J =  1:124 */
(PID.TID 0000.0001)     ;
(PID.TID 0000.0001) rAs =  /* rAs(:,1,:,1) ( units: m^2 ) */
(PID.TID 0000.0001)   124 @  2.500000000000000E+07              /* I =  1:124 */
(PID.TID 0000.0001)     ;
(PID.TID 0000.0001) rAs =  /* rAs(1,:,1,:) ( units: m^2 ) */
(PID.TID 0000.0001)   124 @  2.500000000000000E+07              /* J =  1:124 */
(PID.TID 0000.0001)     ;
(PID.TID 0000.0001) globalArea = /* Integrated horizontal Area (m^2) */
(PID.TID 0000.0001)                 1.512900000000000E+12
(PID.TID 0000.0001)     ;
(PID.TID 0000.0001) // =======================================================
(PID.TID 0000.0001) // End of Model config. summary
(PID.TID 0000.0001) // =======================================================
(PID.TID 0000.0001) 
(PID.TID 0000.0001) == Packages configuration : Check & print summary ==
(PID.TID 0000.0001) 
(PID.TID 0000.0001) // =======================================================
(PID.TID 0000.0001) // Check Model config. (CONFIG_CHECK):
(PID.TID 0000.0001) // CONFIG_CHECK : Normal End
(PID.TID 0000.0001) // =======================================================
(PID.TID 0000.0001) 
(PID.TID 0000.0001) Start initial hydrostatic pressure computation
(PID.TID 0000.0001) Pressure is predetermined for buoyancyRelation OCEANIC
(PID.TID 0000.0001) 
(PID.TID 0000.0001)  MDS_READ_FIELD: opening global file: wind.bin
(PID.TID 0000.0001) // =======================================================
(PID.TID 0000.0001) // Model current state
(PID.TID 0000.0001) // =======================================================
(PID.TID 0000.0001) 
(PID.TID 0000.0001) // =======================================================
(PID.TID 0000.0001) // Begin MONITOR dynamic field statistics
(PID.TID 0000.0001) // =======================================================
(PID.TID 0000.0001) %MON time_tsnumber                =                     0
(PID.TID 0000.0001) %MON time_secondsf                =   0.0000000000000E+00
(PID.TID 0000.0001) %MON dynstat_eta_max              =   0.0000000000000E+00
(PID.TID 0000.0001) %MON dynstat_eta_min              =   0.0000000000000E+00
(PID.TID 0000.0001) %MON dynstat_eta_mean             =   0.0000000000000E+00
(PID.TID 0000.0001) %MON dynstat_eta_sd               =   0.0000000000000E+00
(PID.TID 0000.0001) %MON dynstat_eta_del2             =   0.0000000000000E+00
(PID.TID 0000.0001) %MON dynstat_uvel_max             =   0.0000000000000E+00
(PID.TID 0000.0001) %MON dynstat_uvel_min             =   0.0000000000000E+00
(PID.TID 0000.0001) %MON dynstat_uvel_mean            =   0.0000000000000E+00
(PID.TID 0000.0001) %MON dynstat_uvel_sd              =   0.0000000000000E+00
(PID.TID 0000.0001) %MON dynstat_uvel_del2            =   0.0000000000000E+00
(PID.TID 0000.0001) %MON dynstat_vvel_max             =   0.0000000000000E+00
(PID.TID 0000.0001) %MON dynstat_vvel_min             =   0.0000000000000E+00
(PID.TID 0000.0001) %MON dynstat_vvel_mean            =   0.0000000000000E+00
(PID.TID 0000.0001) %MON dynstat_vvel_sd              =   0.0000000000000E+00
(PID.TID 0000.0001) %MON dynstat_vvel_del2            =   0.0000000000000E+00
(PID.TID 0000.0001) %MON dynstat_wvel_max             =   0.0000000000000E+00
(PID.TID 0000.0001) %MON dynstat_wvel_min             =   0.0000000000000E+00
(PID.TID 0000.0001) %MON dynstat_wvel_mean            =   0.0000000000000E+00
(PID.TID 0000.0001) %MON dynstat_wvel_sd              =   0.0000000000000E+00
(PID.TID 0000.0001) %MON dynstat_wvel_del2            =   0.0000000000000E+00
(PID.TID 0000.0001) %MON dynstat_theta_max            =   2.0000000000000E+01
(PID.TID 0000.0001) %MON dynstat_theta_min            =   2.0000000000000E+01
(PID.TID 0000.0001) %MON dynstat_theta_mean           =   2.0000000000000E+01
(PID.TID 0000.0001) %MON dynstat_theta_sd             =   4.8316906031686E-13
(PID.TID 0000.0001) %MON dynstat_theta_del2           =   0.0000000000000E+00
(PID.TID 0000.0001) %MON dynstat_salt_max             =   3.0000000000000E+01
(PID.TID 0000.0001) %MON dynstat_salt_min             =   3.0000000000000E+01
(PID.TID 0000.0001) %MON dynstat_salt_mean            =   2.9999999999999E+01
(PID.TID 0000.0001) %MON dynstat_salt_sd              =   9.4502183856091E-13
(PID.TID 0000.0001) %MON dynstat_salt_del2            =   0.0000000000000E+00
(PID.TID 0000.0001) %MON trAdv_CFL_u_max              =   0.0000000000000E+00
(PID.TID 0000.0001) %MON trAdv_CFL_v_max              =   0.0000000000000E+00
(PID.TID 0000.0001) %MON trAdv_CFL_w_max              =   0.0000000000000E+00
(PID.TID 0000.0001) %MON advcfl_uvel_max              =   0.0000000000000E+00
(PID.TID 0000.0001) %MON advcfl_vvel_max              =   0.0000000000000E+00
(PID.TID 0000.0001) %MON advcfl_wvel_max              =   0.0000000000000E+00
(PID.TID 0000.0001) %MON advcfl_W_hf_max              =   0.0000000000000E+00
(PID.TID 0000.0001) %MON pe_b_mean                    =   0.0000000000000E+00
(PID.TID 0000.0001) %MON ke_max                       =   0.0000000000000E+00
(PID.TID 0000.0001) %MON ke_mean                      =   0.0000000000000E+00
(PID.TID 0000.0001) %MON ke_vol                       =   7.2529629296389E+15
(PID.TID 0000.0001) %MON vort_r_min                   =   0.0000000000000E+00
(PID.TID 0000.0001) %MON vort_r_max                   =   0.0000000000000E+00
(PID.TID 0000.0001) %MON vort_a_mean                  =   8.2300000000000E-05
(PID.TID 0000.0001) %MON vort_a_sd                    =   7.1297555115605E-06
(PID.TID 0000.0001) %MON vort_p_mean                  =   8.6919888360245E-05
(PID.TID 0000.0001) %MON vort_p_sd                    =   1.7818246499137E-05
(PID.TID 0000.0001) %MON surfExpan_theta_mean         =   0.0000000000000E+00
(PID.TID 0000.0001) %MON surfExpan_salt_mean          =   0.0000000000000E+00
(PID.TID 0000.0001) // =======================================================
(PID.TID 0000.0001) // End MONITOR dynamic field statistics
(PID.TID 0000.0001) // =======================================================
(PID.TID 0000.0001) SOLVE_FOR_PRESSURE: putPmEinXvector =    F
 cg2d: Sum(rhs),rhsMax =   0.00000000000000E+00  9.73592635192475E-05
 cg2d: Sum(rhs),rhsMax =   8.24229573481716E-13  1.15786318361866E-04
 cg2d: Sum(rhs),rhsMax =   3.06243919112603E-12  1.40965044910048E-04
 cg2d: Sum(rhs),rhsMax =   4.67537120130146E-12  1.66424792285971E-04
 cg2d: Sum(rhs),rhsMax =  -4.27036184191820E-12  1.93531974506246E-04
 cg2d: Sum(rhs),rhsMax =  -9.33653154788772E-12  2.21051268892998E-04
 cg2d: Sum(rhs),rhsMax =  -7.87281351222191E-12  2.48418964895491E-04
 cg2d: Sum(rhs),rhsMax =  -8.15703060652595E-12  2.75497529609692E-04
 cg2d: Sum(rhs),rhsMax =  -9.61719592851296E-12  3.02245044066557E-04
 cg2d: Sum(rhs),rhsMax =  -1.07185371689411E-11  3.28652306993531E-04
 cg2d: Sum(rhs),rhsMax =  -1.04414255019947E-11  3.54730592727831E-04
 cg2d: Sum(rhs),rhsMax =  -1.09139364212751E-11  3.80522708237529E-04
 cg2d: Sum(rhs),rhsMax =  -1.42303946404354E-11  4.06041333538053E-04
 cg2d: Sum(rhs),rhsMax =  -1.69091407542510E-11  4.31321752116575E-04
 cg2d: Sum(rhs),rhsMax =  -2.14672724041520E-11  4.56392661603088E-04
 cg2d: Sum(rhs),rhsMax =  -2.15560902461220E-11  4.81277303503287E-04
(PID.TID 0000.0001)      cg2d_init_res =   9.56895098468310E-01
(PID.TID 0000.0001)      cg2d_iters(min,last) =      -1     579
(PID.TID 0000.0001)      cg2d_last_res =   9.58646616995533E-08
(PID.TID 0000.0001) // =======================================================
(PID.TID 0000.0001) // Begin MONITOR dynamic field statistics
(PID.TID 0000.0001) // =======================================================
(PID.TID 0000.0001) %MON time_tsnumber                =                    16
(PID.TID 0000.0001) %MON time_secondsf                =   8.6400000000000E+04
(PID.TID 0000.0001) %MON dynstat_eta_max              =   1.8977296142429E-03
(PID.TID 0000.0001) %MON dynstat_eta_min              =  -2.3223101943026E-03
(PID.TID 0000.0001) %MON dynstat_eta_mean             =   1.1280409539161E-15
(PID.TID 0000.0001) %MON dynstat_eta_sd               =   1.0204739174264E-03
(PID.TID 0000.0001) %MON dynstat_eta_del2             =   5.3596762583889E-09
(PID.TID 0000.0001) %MON dynstat_uvel_max             =   9.9902027475376E-04
(PID.TID 0000.0001) %MON dynstat_uvel_min             =  -9.8832043430293E-04
(PID.TID 0000.0001) %MON dynstat_uvel_mean            =  -1.1582752315052E-07
(PID.TID 0000.0001) %MON dynstat_uvel_sd              =   5.4601600691981E-04
(PID.TID 0000.0001) %MON dynstat_uvel_del2            =   7.2023334427815E-08
(PID.TID 0000.0001) %MON dynstat_vvel_max             =   1.6885807285993E-03
(PID.TID 0000.0001) %MON dynstat_vvel_min             =  -1.3129069548576E-03
(PID.TID 0000.0001) %MON dynstat_vvel_mean            =  -6.6120312250373E-08
(PID.TID 0000.0001) %MON dynstat_vvel_sd              =   5.5770565457541E-04
(PID.TID 0000.0001) %MON dynstat_vvel_del2            =   1.0993747739588E-07
(PID.TID 0000.0001) %MON dynstat_wvel_max             =   2.2808062613922E-08
(PID.TID 0000.0001) %MON dynstat_wvel_min             =  -1.9259405809163E-08
(PID.TID 0000.0001) %MON dynstat_wvel_mean            =  -1.3542928575280E-24
(PID.TID 0000.0001) %MON dynstat_wvel_sd              =   1.1749148523643E-08
(PID.TID 0000.0001) %MON dynstat_wvel_del2            =   8.4410970704436E-14
(PID.TID 0000.0001) %MON dynstat_theta_max            =   2.0000000000000E+01
(PID.TID 0000.0001) %MON dynstat_theta_min            =   2.0000000000000E+01
(PID.TID 0000.0001) %MON dynstat_theta_mean           =   2.0000000000000E+01
(PID.TID 0000.0001) %MON dynstat_theta_sd             =   4.8316906031686E-13
(PID.TID 0000.0001) %MON dynstat_theta_del2           =   0.0000000000000E+00
(PID.TID 0000.0001) %MON dynstat_salt_max             =   3.0000000000000E+01
(PID.TID 0000.0001) %MON dynstat_salt_min             =   3.0000000000000E+01
(PID.TID 0000.0001) %MON dynstat_salt_mean            =   2.9999999999999E+01
(PID.TID 0000.0001) %MON dynstat_salt_sd              =   9.4502183856091E-13
(PID.TID 0000.0001) %MON dynstat_salt_del2            =   0.0000000000000E+00
(PID.TID 0000.0001) %MON trAdv_CFL_u_max              =   1.0110099301873E-03
(PID.TID 0000.0001) %MON trAdv_CFL_v_max              =   1.6998354573225E-03
(PID.TID 0000.0001) %MON trAdv_CFL_w_max              =   2.7287100567532E-08
(PID.TID 0000.0001) %MON advcfl_uvel_max              =   1.0789418967341E-03
(PID.TID 0000.0001) %MON advcfl_vvel_max              =   1.8236671868872E-03
(PID.TID 0000.0001) %MON advcfl_wvel_max              =   4.9265415246071E-08
(PID.TID 0000.0001) %MON advcfl_W_hf_max              =   0.0000000000000E+00
(PID.TID 0000.0001) %MON pe_b_mean                    =   1.0654610913548E-09
(PID.TID 0000.0001) %MON ke_max                       =   1.4255780913621E-06
(PID.TID 0000.0001) %MON ke_mean                      =   3.0321349640931E-07
(PID.TID 0000.0001) %MON ke_vol                       =   7.2529629296389E+15
(PID.TID 0000.0001) %MON vort_r_min                   =  -5.6381960746425E-09
(PID.TID 0000.0001) %MON vort_r_max                   =   1.6625250872649E-07
(PID.TID 0000.0001) %MON vort_a_mean                  =   8.2300000000000E-05
(PID.TID 0000.0001) %MON vort_a_sd                    =   7.1297701624450E-06
(PID.TID 0000.0001) %MON vort_p_mean                  =   8.6919888360245E-05
(PID.TID 0000.0001) %MON vort_p_sd                    =   1.7835518741766E-05
(PID.TID 0000.0001) %MON surfExpan_theta_mean         =   1.4908763701480E-22
(PID.TID 0000.0001) %MON surfExpan_salt_mean          =  -1.8996650522853E-22
(PID.TID 0000.0001) // =======================================================
(PID.TID 0000.0001) // End MONITOR dynamic field statistics
(PID.TID 0000.0001) // =======================================================
 cg2d: Sum(rhs),rhsMax =  -2.31317187626701E-11  5.06007244526225E-04
 cg2d: Sum(rhs),rhsMax =  -2.71542788254919E-11  5.30609139322489E-04
 cg2d: Sum(rhs),rhsMax =  -3.46247475135897E-11  5.55079243039223E-04
 cg2d: Sum(rhs),rhsMax =  -3.46966899655854E-11  5.79477159384276E-04
 cg2d: Sum(rhs),rhsMax =  -3.68061137123732E-11  6.03774869058215E-04
 cg2d: Sum(rhs),rhsMax =  -3.90407706163387E-11  6.28024247329852E-04
 cg2d: Sum(rhs),rhsMax =  -4.37951896969935E-11  6.52216354240634E-04
 cg2d: Sum(rhs),rhsMax =  -4.69266847602512E-11  6.76356265774115E-04
 cg2d: Sum(rhs),rhsMax =  -5.08562081336095E-11  7.00492772370714E-04
 cg2d: Sum(rhs),rhsMax =  -5.45310463451187E-11  7.24602151638976E-04
 cg2d: Sum(rhs),rhsMax =  -6.48265885416777E-11  7.48693567570007E-04
 cg2d: Sum(rhs),rhsMax =  -6.85003165301623E-11  7.72781277207900E-04
 cg2d: Sum(rhs),rhsMax =  -7.59747820211487E-11  7.96893276050346E-04
 cg2d: Sum(rhs),rhsMax =  -8.07878208775037E-11  8.21011580226213E-04
 cg2d: Sum(rhs),rhsMax =  -8.40554292835805E-11  8.45142853744120E-04
 cg2d: Sum(rhs),rhsMax =  -8.81179573752888E-11  8.69293069792758E-04
(PID.TID 0000.0001)      cg2d_init_res =   4.85972645987831E-01
(PID.TID 0000.0001)      cg2d_iters(min,last) =      -1     578
(PID.TID 0000.0001)      cg2d_last_res =   9.53391462727624E-08
(PID.TID 0000.0001) // =======================================================
(PID.TID 0000.0001) // Begin MONITOR dynamic field statistics
(PID.TID 0000.0001) // =======================================================
(PID.TID 0000.0001) %MON time_tsnumber                =                    32
(PID.TID 0000.0001) %MON time_secondsf                =   1.7280000000000E+05
(PID.TID 0000.0001) %MON dynstat_eta_max              =   3.8531781251355E-03
(PID.TID 0000.0001) %MON dynstat_eta_min              =  -3.8946713331922E-03
(PID.TID 0000.0001) %MON dynstat_eta_mean             =   7.9197240321774E-15
(PID.TID 0000.0001) %MON dynstat_eta_sd               =   2.0025492281003E-03
(PID.TID 0000.0001) %MON dynstat_eta_del2             =   1.2731283752612E-08
(PID.TID 0000.0001) %MON dynstat_uvel_max             =   2.0214510359663E-03
(PID.TID 0000.0001) %MON dynstat_uvel_min             =  -1.9376919328033E-03
(PID.TID 0000.0001) %MON dynstat_uvel_mean            =  -2.2795208616004E-07
(PID.TID 0000.0001) %MON dynstat_uvel_sd              =   1.0714646888427E-03
(PID.TID 0000.0001) %MON dynstat_uvel_del2            =   1.1628007983690E-07
(PID.TID 0000.0001) %MON dynstat_vvel_max             =   3.6835701641665E-03
(PID.TID 0000.0001) %MON dynstat_vvel_min             =  -2.2487331205191E-03
(PID.TID 0000.0001) %MON dynstat_vvel_mean            =  -4.6996339825386E-08
(PID.TID 0000.0001) %MON dynstat_vvel_sd              =   1.1088541043705E-03
(PID.TID 0000.0001) %MON dynstat_vvel_del2            =   1.8792470866635E-07
(PID.TID 0000.0001) %MON dynstat_wvel_max             =   2.3331072896508E-08
(PID.TID 0000.0001) %MON dynstat_wvel_min             =  -1.8205635686992E-08
(PID.TID 0000.0001) %MON dynstat_wvel_mean            =   3.4842261698219E-23
(PID.TID 0000.0001) %MON dynstat_wvel_sd              =   1.1612671247579E-08
(PID.TID 0000.0001) %MON dynstat_wvel_del2            =   9.0219054819752E-14
(PID.TID 0000.0001) %MON dynstat_theta_max            =   2.0000000000000E+01
(PID.TID 0000.0001) %MON dynstat_theta_min            =   2.0000000000000E+01
(PID.TID 0000.0001) %MON dynstat_theta_mean           =   2.0000000000000E+01
(PID.TID 0000.0001) %MON dynstat_theta_sd             =   4.8316906031686E-13
(PID.TID 0000.0001) %MON dynstat_theta_del2           =   0.0000000000000E+00
(PID.TID 0000.0001) %MON dynstat_salt_max             =   3.0000000000000E+01
(PID.TID 0000.0001) %MON dynstat_salt_min             =   3.0000000000000E+01
(PID.TID 0000.0001) %MON dynstat_salt_mean            =   2.9999999999999E+01
(PID.TID 0000.0001) %MON dynstat_salt_sd              =   9.4502183856091E-13
(PID.TID 0000.0001) %MON dynstat_salt_del2            =   0.0000000000000E+00
(PID.TID 0000.0001) %MON trAdv_CFL_u_max              =   2.1129281692191E-03
(PID.TID 0000.0001) %MON trAdv_CFL_v_max              =   3.8336746962862E-03
(PID.TID 0000.0001) %MON trAdv_CFL_w_max              =   2.7704642265822E-08
(PID.TID 0000.0001) %MON advcfl_uvel_max              =   2.1831671188437E-03
(PID.TID 0000.0001) %MON advcfl_vvel_max              =   3.9782557772998E-03
(PID.TID 0000.0001) %MON advcfl_wvel_max              =   5.0395117456457E-08
(PID.TID 0000.0001) %MON advcfl_W_hf_max              =   0.0000000000000E+00
(PID.TID 0000.0001) %MON pe_b_mean                    =   4.1029873584896E-09
(PID.TID 0000.0001) %MON ke_max                       =   6.7840202117666E-06
(PID.TID 0000.0001) %MON ke_mean                      =   1.1834458013438E-06
(PID.TID 0000.0001) %MON ke_vol                       =   7.2529629296389E+15
(PID.TID 0000.0001) %MON vort_r_min                   =  -1.4135991107123E-08
(PID.TID 0000.0001) %MON vort_r_max                   =   2.8098453956997E-07
(PID.TID 0000.0001) %MON vort_a_mean                  =   8.2300000000000E-05
(PID.TID 0000.0001) %MON vort_a_sd                    =   7.1298024981958E-06
(PID.TID 0000.0001) %MON vort_p_mean                  =   8.6919888360245E-05
(PID.TID 0000.0001) %MON vort_p_sd                    =   1.7842911554012E-05
(PID.TID 0000.0001) %MON surfExpan_theta_mean         =   6.9975003824687E-22
(PID.TID 0000.0001) %MON surfExpan_salt_mean          =   1.4187371909473E-21
(PID.TID 0000.0001) // =======================================================
(PID.TID 0000.0001) // End MONITOR dynamic field statistics
(PID.TID 0000.0001) // =======================================================
 cg2d: Sum(rhs),rhsMax =  -9.16191567057467E-11  8.93467581210172E-04
 cg2d: Sum(rhs),rhsMax =  -1.00958352788894E-10  9.17679467319540E-04
 cg2d: Sum(rhs),rhsMax =  -1.06801678612101E-10  9.41937152254738E-04
 cg2d: Sum(rhs),rhsMax =  -1.09753983679184E-10  9.66231248955807E-04
 cg2d: Sum(rhs),rhsMax =  -1.16084919454806E-10  9.90565162567292E-04
 cg2d: Sum(rhs),rhsMax =  -1.22273746683277E-10  1.01494191865982E-03
 cg2d: Sum(rhs),rhsMax =  -1.27549526496296E-10  1.03936419711467E-03
 cg2d: Sum(rhs),rhsMax =  -1.36337163780809E-10  1.06383436077117E-03
 cg2d: Sum(rhs),rhsMax =  -1.40556011274384E-10  1.08835448174433E-03
 cg2d: Sum(rhs),rhsMax =  -1.47149847862238E-10  1.11292636475254E-03
 cg2d: Sum(rhs),rhsMax =  -1.52180490431419E-10  1.13755156808102E-03
 cg2d: Sum(rhs),rhsMax =  -1.58467017286057E-10  1.16223142240936E-03
 cg2d: Sum(rhs),rhsMax =  -1.69169567243443E-10  1.18696704777579E-03
 cg2d: Sum(rhs),rhsMax =  -1.74717129652890E-10  1.21175936889824E-03
 cg2d: Sum(rhs),rhsMax =  -1.85130133445455E-10  1.23660912903874E-03
 cg2d: Sum(rhs),rhsMax =  -1.97136529322961E-10  1.26151690258250E-03
(PID.TID 0000.0001)      cg2d_init_res =   3.37729072211182E-01
(PID.TID 0000.0001)      cg2d_iters(min,last) =      -1     577
(PID.TID 0000.0001)      cg2d_last_res =   9.55987890802906E-08
(PID.TID 0000.0001) // =======================================================
(PID.TID 0000.0001) // Begin MONITOR dynamic field statistics
(PID.TID 0000.0001) // =======================================================
(PID.TID 0000.0001) %MON time_tsnumber                =                    48
(PID.TID 0000.0001) %MON time_secondsf                =   2.5920000000000E+05
(PID.TID 0000.0001) %MON dynstat_eta_max              =   5.8110547178026E-03
(PID.TID 0000.0001) %MON dynstat_eta_min              =  -5.3615065211902E-03
(PID.TID 0000.0001) %MON dynstat_eta_mean             =   2.5256621182828E-14
(PID.TID 0000.0001) %MON dynstat_eta_sd               =   2.9661830769230E-03
(PID.TID 0000.0001) %MON dynstat_eta_del2             =   2.0319025842756E-08
(PID.TID 0000.0001) %MON dynstat_uvel_max             =   3.0848802804564E-03
(PID.TID 0000.0001) %MON dynstat_uvel_min             =  -2.8143153437748E-03
(PID.TID 0000.0001) %MON dynstat_uvel_mean            =  -3.2448358916890E-07
(PID.TID 0000.0001) %MON dynstat_uvel_sd              =   1.5682669935658E-03
(PID.TID 0000.0001) %MON dynstat_uvel_del2            =   1.4238327456609E-07
(PID.TID 0000.0001) %MON dynstat_vvel_max             =   5.9600055712932E-03
(PID.TID 0000.0001) %MON dynstat_vvel_min             =  -2.8754082581104E-03
(PID.TID 0000.0001) %MON dynstat_vvel_mean            =  -1.6679674110886E-08
(PID.TID 0000.0001) %MON dynstat_vvel_sd              =   1.6585975033093E-03
(PID.TID 0000.0001) %MON dynstat_vvel_del2            =   2.5244146259742E-07
(PID.TID 0000.0001) %MON dynstat_wvel_max             =   2.4124642372553E-08
(PID.TID 0000.0001) %MON dynstat_wvel_min             =  -1.6783086368860E-08
(PID.TID 0000.0001) %MON dynstat_wvel_mean            =  -6.5990997421362E-22
(PID.TID 0000.0001) %MON dynstat_wvel_sd              =   1.1427809719506E-08
(PID.TID 0000.0001) %MON dynstat_wvel_del2            =   9.4530753631694E-14
(PID.TID 0000.0001) %MON dynstat_theta_max            =   2.0000000000000E+01
(PID.TID 0000.0001) %MON dynstat_theta_min            =   2.0000000000000E+01
(PID.TID 0000.0001) %MON dynstat_theta_mean           =   2.0000000000000E+01
(PID.TID 0000.0001) %MON dynstat_theta_sd             =   4.8316906031686E-13
(PID.TID 0000.0001) %MON dynstat_theta_del2           =   0.0000000000000E+00
(PID.TID 0000.0001) %MON dynstat_salt_max             =   3.0000000000000E+01
(PID.TID 0000.0001) %MON dynstat_salt_min             =   3.0000000000000E+01
(PID.TID 0000.0001) %MON dynstat_salt_mean            =   2.9999999999999E+01
(PID.TID 0000.0001) %MON dynstat_salt_sd              =   9.4502183856091E-13
(PID.TID 0000.0001) %MON dynstat_salt_del2            =   0.0000000000000E+00
(PID.TID 0000.0001) %MON trAdv_CFL_u_max              =   3.2581233474257E-03
(PID.TID 0000.0001) %MON trAdv_CFL_v_max              =   6.2724874389739E-03
(PID.TID 0000.0001) %MON trAdv_CFL_w_max              =   2.8383604687986E-08
(PID.TID 0000.0001) %MON advcfl_uvel_max              =   3.3316707028929E-03
(PID.TID 0000.0001) %MON advcfl_vvel_max              =   6.4368060169967E-03
(PID.TID 0000.0001) %MON advcfl_wvel_max              =   5.2109227524715E-08
(PID.TID 0000.0001) %MON advcfl_W_hf_max              =   0.0000000000000E+00
(PID.TID 0000.0001) %MON pe_b_mean                    =   9.0018066894674E-09
(PID.TID 0000.0001) %MON ke_max                       =   1.7759367401212E-05
(PID.TID 0000.0001) %MON ke_mean                      =   2.5934765605823E-06
(PID.TID 0000.0001) %MON ke_vol                       =   7.2529629296389E+15
(PID.TID 0000.0001) %MON vort_r_min                   =  -2.5776603356355E-08
(PID.TID 0000.0001) %MON vort_r_max                   =   4.3902636720042E-07
(PID.TID 0000.0001) %MON vort_a_mean                  =   8.2300000000000E-05
(PID.TID 0000.0001) %MON vort_a_sd                    =   7.1298507373106E-06
(PID.TID 0000.0001) %MON vort_p_mean                  =   8.6919888360245E-05
(PID.TID 0000.0001) %MON vort_p_sd                    =   1.7848331283282E-05
(PID.TID 0000.0001) %MON surfExpan_theta_mean         =  -1.3162995564823E-20
(PID.TID 0000.0001) %MON surfExpan_salt_mean          =  -1.9703614479020E-20
(PID.TID 0000.0001) // =======================================================
(PID.TID 0000.0001) // End MONITOR dynamic field statistics
(PID.TID 0000.0001) // =======================================================
 cg2d: Sum(rhs),rhsMax =  -2.03847605462215E-10  1.28648310647334E-03
 cg2d: Sum(rhs),rhsMax =  -2.09841033438352E-10  1.31150965628625E-03
 cg2d: Sum(rhs),rhsMax =  -2.18602025370274E-10  1.33659504701162E-03
 cg2d: Sum(rhs),rhsMax =  -2.27357688231677E-10  1.36173821821337E-03
 cg2d: Sum(rhs),rhsMax =  -2.34685160194203E-10  1.38693903477899E-03
 cg2d: Sum(rhs),rhsMax =  -2.44266828985928E-10  1.41219724792836E-03
 cg2d: Sum(rhs),rhsMax =  -2.54996024295906E-10  1.43751332423225E-03
 cg2d: Sum(rhs),rhsMax =  -2.68851607643228E-10  1.46288896801097E-03
 cg2d: Sum(rhs),rhsMax =  -2.82476264601428E-10  1.48832179118682E-03
 cg2d: Sum(rhs),rhsMax =  -2.94839708203654E-10  1.51381117199430E-03
 cg2d: Sum(rhs),rhsMax =  -3.07394998344535E-10  1.53935640307279E-03
 cg2d: Sum(rhs),rhsMax =  -3.22337712077569E-10  1.56495669737281E-03
 cg2d: Sum(rhs),rhsMax =  -3.34750893671298E-10  1.59061119208227E-03
 cg2d: Sum(rhs),rhsMax =  -3.49437812019460E-10  1.61631895257807E-03
 cg2d: Sum(rhs),rhsMax =  -3.62799568165428E-10  1.64207897613171E-03
 cg2d: Sum(rhs),rhsMax =  -3.79223763502523E-10  1.66789019536307E-03
(PID.TID 0000.0001)      cg2d_init_res =   2.64699860515211E-01
(PID.TID 0000.0001)      cg2d_iters(min,last) =      -1     576
(PID.TID 0000.0001)      cg2d_last_res =   9.73474817421977E-08
(PID.TID 0000.0001) // =======================================================
(PID.TID 0000.0001) // Begin MONITOR dynamic field statistics
(PID.TID 0000.0001) // =======================================================
(PID.TID 0000.0001) %MON time_tsnumber                =                    64
(PID.TID 0000.0001) %MON time_secondsf                =   3.4560000000000E+05
(PID.TID 0000.0001) %MON dynstat_eta_max              =   7.7714328929929E-03
(PID.TID 0000.0001) %MON dynstat_eta_min              =  -6.6938570431931E-03
(PID.TID 0000.0001) %MON dynstat_eta_mean             =   6.4483527600139E-14
(PID.TID 0000.0001) %MON dynstat_eta_sd               =   3.8914954110969E-03
(PID.TID 0000.0001) %MON dynstat_eta_del2             =   2.8190057898102E-08
(PID.TID 0000.0001) %MON dynstat_uvel_max             =   4.1975504383669E-03
(PID.TID 0000.0001) %MON dynstat_uvel_min             =  -3.5898953775623E-03
(PID.TID 0000.0001) %MON dynstat_uvel_mean            =  -4.0115688432563E-07
(PID.TID 0000.0001) %MON dynstat_uvel_sd              =   2.0285578333029E-03
(PID.TID 0000.0001) %MON dynstat_uvel_del2            =   1.5916563084898E-07
(PID.TID 0000.0001) %MON dynstat_vvel_max             =   8.5203144956376E-03
(PID.TID 0000.0001) %MON dynstat_vvel_min             =  -3.2517357070224E-03
(PID.TID 0000.0001) %MON dynstat_vvel_mean            =   2.2357728072039E-08
(PID.TID 0000.0001) %MON dynstat_vvel_sd              =   2.2076832719488E-03
(PID.TID 0000.0001) %MON dynstat_vvel_del2            =   3.1632838292757E-07
(PID.TID 0000.0001) %MON dynstat_wvel_max             =   2.5044355365972E-08
(PID.TID 0000.0001) %MON dynstat_wvel_min             =  -1.5036748090605E-08
(PID.TID 0000.0001) %MON dynstat_wvel_mean            =  -3.2182922996164E-22
(PID.TID 0000.0001) %MON dynstat_wvel_sd              =   1.1189768002548E-08
(PID.TID 0000.0001) %MON dynstat_wvel_del2            =   1.0005267290493E-13
(PID.TID 0000.0001) %MON dynstat_theta_max            =   2.0000000000000E+01
(PID.TID 0000.0001) %MON dynstat_theta_min            =   2.0000000000000E+01
(PID.TID 0000.0001) %MON dynstat_theta_mean           =   2.0000000000000E+01
(PID.TID 0000.0001) %MON dynstat_theta_sd             =   4.8316906031686E-13
(PID.TID 0000.0001) %MON dynstat_theta_del2           =   0.0000000000000E+00
(PID.TID 0000.0001) %MON dynstat_salt_max             =   3.0000000000000E+01
(PID.TID 0000.0001) %MON dynstat_salt_min             =   3.0000000000000E+01
(PID.TID 0000.0001) %MON dynstat_salt_mean            =   2.9999999999999E+01
(PID.TID 0000.0001) %MON dynstat_salt_sd              =   9.4502183856091E-13
(PID.TID 0000.0001) %MON dynstat_salt_del2            =   0.0000000000000E+00
(PID.TID 0000.0001) %MON trAdv_CFL_u_max              =   4.4562352581159E-03
(PID.TID 0000.0001) %MON trAdv_CFL_v_max              =   9.0221816674547E-03
(PID.TID 0000.0001) %MON trAdv_CFL_w_max              =   2.9195272416932E-08
(PID.TID 0000.0001) %MON advcfl_uvel_max              =   4.5333544734363E-03
(PID.TID 0000.0001) %MON advcfl_vvel_max              =   9.2019396552886E-03
(PID.TID 0000.0001) %MON advcfl_wvel_max              =   5.4095807590499E-08
(PID.TID 0000.0001) %MON advcfl_W_hf_max              =   0.0000000000000E+00
(PID.TID 0000.0001) %MON pe_b_mean                    =   1.5494116680421E-08
(PID.TID 0000.0001) %MON ke_max                       =   3.6297681980360E-05
(PID.TID 0000.0001) %MON ke_mean                      =   4.4742249788817E-06
(PID.TID 0000.0001) %MON ke_vol                       =   7.2529629296389E+15
(PID.TID 0000.0001) %MON vort_r_min                   =  -4.0744417858441E-08
(PID.TID 0000.0001) %MON vort_r_max                   =   6.0401831909715E-07
(PID.TID 0000.0001) %MON vort_a_mean                  =   8.2300000000000E-05
(PID.TID 0000.0001) %MON vort_a_sd                    =   7.1299164474011E-06
(PID.TID 0000.0001) %MON vort_p_mean                  =   8.6919888360245E-05
(PID.TID 0000.0001) %MON vort_p_sd                    =   1.7852819380875E-05
(PID.TID 0000.0001) %MON surfExpan_theta_mean         =  -6.2712993118482E-21
(PID.TID 0000.0001) %MON surfExpan_salt_mean          =  -9.7484077493224E-21
(PID.TID 0000.0001) // =======================================================
(PID.TID 0000.0001) // End MONITOR dynamic field statistics
(PID.TID 0000.0001) // =======================================================
 cg2d: Sum(rhs),rhsMax =  -3.95260713048629E-10  1.69375148148205E-03
 cg2d: Sum(rhs),rhsMax =  -4.09656308875128E-10  1.71966164732652E-03
 cg2d: Sum(rhs),rhsMax =  -4.23128199145140E-10  1.74561945021870E-03
 cg2d: Sum(rhs),rhsMax =  -4.37783143070192E-10  1.77162359465369E-03
 cg2d: Sum(rhs),rhsMax =  -4.55603554883055E-10  1.79767273483295E-03
 cg2d: Sum(rhs),rhsMax =  -4.67057503783508E-10  1.82376547705769E-03
 cg2d: Sum(rhs),rhsMax =  -4.85563589336380E-10  1.84990038199163E-03
 cg2d: Sum(rhs),rhsMax =  -5.02215158348918E-10  1.87607596680493E-03
 cg2d: Sum(rhs),rhsMax =  -5.18603826549224E-10  1.90229070720674E-03
 cg2d: Sum(rhs),rhsMax =  -5.37259126076606E-10  1.92854303937828E-03
 cg2d: Sum(rhs),rhsMax =  -5.53889378807071E-10  1.95483136180995E-03
 cg2d: Sum(rhs),rhsMax =  -5.68434188608080E-10  1.98115403705281E-03
 cg2d: Sum(rhs),rhsMax =  -5.86403814395453E-10  2.00752587082928E-03
 cg2d: Sum(rhs),rhsMax =  -6.05485439564291E-10  2.03394073657628E-03
 cg2d: Sum(rhs),rhsMax =  -6.24304163920897E-10  2.06038639718327E-03
 cg2d: Sum(rhs),rhsMax =  -6.43879616291088E-10  2.08686110612999E-03
(PID.TID 0000.0001)      cg2d_init_res =   2.19609124255652E-01
(PID.TID 0000.0001)      cg2d_iters(min,last) =      -1     576
(PID.TID 0000.0001)      cg2d_last_res =   9.22917252430144E-08
(PID.TID 0000.0001) // =======================================================
(PID.TID 0000.0001) // Begin MONITOR dynamic field statistics
(PID.TID 0000.0001) // =======================================================
(PID.TID 0000.0001) %MON time_tsnumber                =                    80
(PID.TID 0000.0001) %MON time_secondsf                =   4.3200000000000E+05
(PID.TID 0000.0001) %MON dynstat_eta_max              =   9.7289505464338E-03
(PID.TID 0000.0001) %MON dynstat_eta_min              =  -7.8677356710732E-03
(PID.TID 0000.0001) %MON dynstat_eta_mean             =   1.3443642487111E-13
(PID.TID 0000.0001) %MON dynstat_eta_sd               =   4.7658962725534E-03
(PID.TID 0000.0001) %MON dynstat_eta_del2             =   3.6439982736028E-08
(PID.TID 0000.0001) %MON dynstat_uvel_max             =   5.3596074103300E-03
(PID.TID 0000.0001) %MON dynstat_uvel_min             =  -4.2439582470364E-03
(PID.TID 0000.0001) %MON dynstat_uvel_mean            =  -4.5483002323626E-07
(PID.TID 0000.0001) %MON dynstat_uvel_sd              =   2.4467375010210E-03
(PID.TID 0000.0001) %MON dynstat_uvel_del2            =   1.7016575926904E-07
(PID.TID 0000.0001) %MON dynstat_vvel_max             =   1.1282986833755E-02
(PID.TID 0000.0001) %MON dynstat_vvel_min             =  -3.4309207545542E-03
(PID.TID 0000.0001) %MON dynstat_vvel_mean            =   6.7138536405253E-08
(PID.TID 0000.0001) %MON dynstat_vvel_sd              =   2.7540685092976E-03
(PID.TID 0000.0001) %MON dynstat_vvel_del2            =   3.8208568430365E-07
(PID.TID 0000.0001) %MON dynstat_wvel_max             =   2.5979706145881E-08
(PID.TID 0000.0001) %MON dynstat_wvel_min             =  -1.3045589058529E-08
(PID.TID 0000.0001) %MON dynstat_wvel_mean            =  -2.5903928838535E-22
(PID.TID 0000.0001) %MON dynstat_wvel_sd              =   1.0900221899486E-08
(PID.TID 0000.0001) %MON dynstat_wvel_del2            =   1.0588832232681E-13
(PID.TID 0000.0001) %MON dynstat_theta_max            =   2.0000000000000E+01
(PID.TID 0000.0001) %MON dynstat_theta_min            =   2.0000000000000E+01
(PID.TID 0000.0001) %MON dynstat_theta_mean           =   2.0000000000000E+01
(PID.TID 0000.0001) %MON dynstat_theta_sd             =   4.8316906031686E-13
(PID.TID 0000.0001) %MON dynstat_theta_del2           =   0.0000000000000E+00
(PID.TID 0000.0001) %MON dynstat_salt_max             =   3.0000000000000E+01
(PID.TID 0000.0001) %MON dynstat_salt_min             =   3.0000000000000E+01
(PID.TID 0000.0001) %MON dynstat_salt_mean            =   2.9999999999999E+01
(PID.TID 0000.0001) %MON dynstat_salt_sd              =   9.4502183856091E-13
(PID.TID 0000.0001) %MON dynstat_salt_del2            =   0.0000000000000E+00
(PID.TID 0000.0001) %MON trAdv_CFL_u_max              =   5.7078971182730E-03
(PID.TID 0000.0001) %MON trAdv_CFL_v_max              =   1.1993883718894E-02
(PID.TID 0000.0001) %MON trAdv_CFL_w_max              =   3.0028869075699E-08
(PID.TID 0000.0001) %MON advcfl_uvel_max              =   5.7883760031564E-03
(PID.TID 0000.0001) %MON advcfl_vvel_max              =   1.2185625780456E-02
(PID.TID 0000.0001) %MON advcfl_wvel_max              =   5.6116165275103E-08
(PID.TID 0000.0001) %MON advcfl_W_hf_max              =   0.0000000000000E+00
(PID.TID 0000.0001) %MON pe_b_mean                    =   2.3239294984819E-08
(PID.TID 0000.0001) %MON ke_max                       =   6.3650054235662E-05
(PID.TID 0000.0001) %MON ke_mean                      =   6.7551639235226E-06
(PID.TID 0000.0001) %MON ke_vol                       =   7.2529629296389E+15
(PID.TID 0000.0001) %MON vort_r_min                   =  -5.9290107561925E-08
(PID.TID 0000.0001) %MON vort_r_max                   =   7.7527578628104E-07
(PID.TID 0000.0001) %MON vort_a_mean                  =   8.2300000000000E-05
(PID.TID 0000.0001) %MON vort_a_sd                    =   7.1300018782740E-06
(PID.TID 0000.0001) %MON vort_p_mean                  =   8.6919888360245E-05
(PID.TID 0000.0001) %MON vort_p_sd                    =   1.7856755934288E-05
(PID.TID 0000.0001) %MON surfExpan_theta_mean         =  -5.0593611012763E-21
(PID.TID 0000.0001) %MON surfExpan_salt_mean          =  -6.7233715015060E-21
(PID.TID 0000.0001) // =======================================================
(PID.TID 0000.0001) // End MONITOR dynamic field statistics
(PID.TID 0000.0001) // =======================================================
 cg2d: Sum(rhs),rhsMax =  -6.60815402397930E-10  2.11336308853065E-03
 cg2d: Sum(rhs),rhsMax =  -6.82476297697576E-10  2.13989054247678E-03
 cg2d: Sum(rhs),rhsMax =  -7.00300262224118E-10  2.16644164032873E-03
 cg2d: Sum(rhs),rhsMax =  -7.23385795708964E-10  2.19301452996064E-03
 cg2d: Sum(rhs),rhsMax =  -7.40637773333219E-10  2.21960733595846E-03
 cg2d: Sum(rhs),rhsMax =  -7.67482077890236E-10  2.24621816062786E-03
 cg2d: Sum(rhs),rhsMax =  -7.97612642600143E-10  2.27284508570010E-03
 cg2d: Sum(rhs),rhsMax =  -8.24744716965142E-10  2.29948766244473E-03
 cg2d: Sum(rhs),rhsMax =  -8.54623039003855E-10  2.32618267403502E-03
 cg2d: Sum(rhs),rhsMax =  -8.83538575635612E-10  2.35288966769175E-03
 cg2d: Sum(rhs),rhsMax =  -9.12795172780534E-10  2.37960666920079E-03
 cg2d: Sum(rhs),rhsMax =  -9.45075129266115E-10  2.40633168819214E-03
 cg2d: Sum(rhs),rhsMax =  -9.74171854295491E-10  2.43306271922269E-03
 cg2d: Sum(rhs),rhsMax =  -1.00896713206566E-09  2.45979774254615E-03
 cg2d: Sum(rhs),rhsMax =  -1.04470032624704E-09  2.48653472508966E-03
 cg2d: Sum(rhs),rhsMax =  -1.08178710434004E-09  2.51327162123251E-03
(PID.TID 0000.0001)      cg2d_init_res =   1.87716469922485E-01
(PID.TID 0000.0001)      cg2d_iters(min,last) =      -1     575
(PID.TID 0000.0001)      cg2d_last_res =   9.61708341535157E-08
(PID.TID 0000.0001) // =======================================================
(PID.TID 0000.0001) // Begin MONITOR dynamic field statistics
(PID.TID 0000.0001) // =======================================================
(PID.TID 0000.0001) %MON time_tsnumber                =                    96
(PID.TID 0000.0001) %MON time_secondsf                =   5.1840000000000E+05
(PID.TID 0000.0001) %MON dynstat_eta_max              =   1.1674563166186E-02
(PID.TID 0000.0001) %MON dynstat_eta_min              =  -8.8664466050164E-03
(PID.TID 0000.0001) %MON dynstat_eta_mean             =   2.7330220520193E-13
(PID.TID 0000.0001) %MON dynstat_eta_sd               =   5.5789649933154E-03
(PID.TID 0000.0001) %MON dynstat_eta_del2             =   4.5092045832517E-08
(PID.TID 0000.0001) %MON dynstat_uvel_max             =   6.5686817505199E-03
(PID.TID 0000.0001) %MON dynstat_uvel_min             =  -4.7652476539555E-03
(PID.TID 0000.0001) %MON dynstat_uvel_mean            =  -4.8381166203700E-07
(PID.TID 0000.0001) %MON dynstat_uvel_sd              =   2.8200156816069E-03
(PID.TID 0000.0001) %MON dynstat_uvel_del2            =   1.7750984981462E-07
(PID.TID 0000.0001) %MON dynstat_vvel_max             =   1.4194370317794E-02
(PID.TID 0000.0001) %MON dynstat_vvel_min             =  -3.4788502722056E-03
(PID.TID 0000.0001) %MON dynstat_vvel_mean            =   1.1437194617336E-07
(PID.TID 0000.0001) %MON dynstat_vvel_sd              =   3.2933667482046E-03
(PID.TID 0000.0001) %MON dynstat_vvel_del2            =   4.4910815854897E-07
(PID.TID 0000.0001) %MON dynstat_wvel_max             =   2.6843827213452E-08
(PID.TID 0000.0001) %MON dynstat_wvel_min             =  -1.0905246079789E-08
(PID.TID 0000.0001) %MON dynstat_wvel_mean            =   1.0021767145707E-22
(PID.TID 0000.0001) %MON dynstat_wvel_sd              =   1.0566214766378E-08
(PID.TID 0000.0001) %MON dynstat_wvel_del2            =   1.1127842549257E-13
(PID.TID 0000.0001) %MON dynstat_theta_max            =   2.0000000000000E+01
(PID.TID 0000.0001) %MON dynstat_theta_min            =   2.0000000000000E+01
(PID.TID 0000.0001) %MON dynstat_theta_mean           =   2.0000000000000E+01
(PID.TID 0000.0001) %MON dynstat_theta_sd             =   4.8316906031686E-13
(PID.TID 0000.0001) %MON dynstat_theta_del2           =   0.0000000000000E+00
(PID.TID 0000.0001) %MON dynstat_salt_max             =   3.0000000000000E+01
(PID.TID 0000.0001) %MON dynstat_salt_min             =   3.0000000000000E+01
(PID.TID 0000.0001) %MON dynstat_salt_mean            =   2.9999999999999E+01
(PID.TID 0000.0001) %MON dynstat_salt_sd              =   9.4502183856091E-13
(PID.TID 0000.0001) %MON dynstat_salt_del2            =   0.0000000000000E+00
(PID.TID 0000.0001) %MON trAdv_CFL_u_max              =   7.0105102405978E-03
(PID.TID 0000.0001) %MON trAdv_CFL_v_max              =   1.5129884990064E-02
(PID.TID 0000.0001) %MON trAdv_CFL_w_max              =   3.0799788686421E-08
(PID.TID 0000.0001) %MON advcfl_uvel_max              =   7.0941762905615E-03
(PID.TID 0000.0001) %MON advcfl_vvel_max              =   1.5329919943217E-02
(PID.TID 0000.0001) %MON advcfl_wvel_max              =   5.7982666781056E-08
(PID.TID 0000.0001) %MON advcfl_W_hf_max              =   0.0000000000000E+00
(PID.TID 0000.0001) %MON pe_b_mean                    =   3.1844985060635E-08
(PID.TID 0000.0001) %MON ke_max                       =   1.0073561335746E-04
(PID.TID 0000.0001) %MON ke_mean                      =   9.3570664436509E-06
(PID.TID 0000.0001) %MON ke_vol                       =   7.2529629296389E+15
(PID.TID 0000.0001) %MON vort_r_min                   =  -8.1195230461296E-08
(PID.TID 0000.0001) %MON vort_r_max                   =   9.5055727260914E-07
(PID.TID 0000.0001) %MON vort_a_mean                  =   8.2300000000000E-05
(PID.TID 0000.0001) %MON vort_a_sd                    =   7.1301088786238E-06
(PID.TID 0000.0001) %MON vort_p_mean                  =   8.6919888360245E-05
(PID.TID 0000.0001) %MON vort_p_sd                    =   1.7860328104434E-05
(PID.TID 0000.0001) %MON surfExpan_theta_mean         =   2.1545568187945E-21
(PID.TID 0000.0001) %MON surfExpan_salt_mean          =   3.0779383125635E-21
(PID.TID 0000.0001) // =======================================================
(PID.TID 0000.0001) // End MONITOR dynamic field statistics
(PID.TID 0000.0001) // =======================================================
 cg2d: Sum(rhs),rhsMax =  -1.11730713570068E-09  2.54000637369982E-03
 cg2d: Sum(rhs),rhsMax =  -1.15448983706301E-09  2.56676770177390E-03
 cg2d: Sum(rhs),rhsMax =  -1.19643317475493E-09  2.59354702156961E-03
 cg2d: Sum(rhs),rhsMax =  -1.23629462223107E-09  2.62031989153430E-03
(PID.TID 0000.0001) %CHECKPOINT       100 ckptA
(PID.TID 0000.0001)   Seconds in section "ALL                    [THE_MODEL_MAIN]":
(PID.TID 0000.0001)           User time:   575.564655015245
(PID.TID 0000.0001)         System time:  0.000000000000000E+000
(PID.TID 0000.0001)     Wall clock time:   599.456250905991
(PID.TID 0000.0001)          No. starts:           1
(PID.TID 0000.0001)           No. stops:           1
(PID.TID 0000.0001)   Seconds in section "INITIALISE_FIXED       [THE_MODEL_MAIN]":
(PID.TID 0000.0001)           User time:  7.087500020861626E-002
(PID.TID 0000.0001)         System time:  0.000000000000000E+000
(PID.TID 0000.0001)     Wall clock time:  0.274116992950439
(PID.TID 0000.0001)          No. starts:           1
(PID.TID 0000.0001)           No. stops:           1
(PID.TID 0000.0001)   Seconds in section "THE_MAIN_LOOP          [THE_MODEL_MAIN]":
(PID.TID 0000.0001)           User time:   575.493684977293
(PID.TID 0000.0001)         System time:  0.000000000000000E+000
(PID.TID 0000.0001)     Wall clock time:   599.182067871094
(PID.TID 0000.0001)          No. starts:           1
(PID.TID 0000.0001)           No. stops:           1
(PID.TID 0000.0001)   Seconds in section "INITIALISE_VARIA    [THE_MAIN_LOOP]":
(PID.TID 0000.0001)           User time:  2.307400107383728E-002
(PID.TID 0000.0001)         System time:  0.000000000000000E+000
(PID.TID 0000.0001)     Wall clock time:  8.134102821350098E-002
(PID.TID 0000.0001)          No. starts:           1
(PID.TID 0000.0001)           No. stops:           1
(PID.TID 0000.0001)   Seconds in section "MAIN LOOP           [THE_MAIN_LOOP]":
(PID.TID 0000.0001)           User time:   575.470573984087
(PID.TID 0000.0001)         System time:  0.000000000000000E+000
(PID.TID 0000.0001)     Wall clock time:   599.100656032562
(PID.TID 0000.0001)          No. starts:           1
(PID.TID 0000.0001)           No. stops:           1
(PID.TID 0000.0001)   Seconds in section "MAIN_DO_LOOP        [THE_MAIN_LOOP]":
(PID.TID 0000.0001)           User time:   575.469431012869
(PID.TID 0000.0001)         System time:  0.000000000000000E+000
(PID.TID 0000.0001)     Wall clock time:   599.099094629288
(PID.TID 0000.0001)          No. starts:         100
(PID.TID 0000.0001)           No. stops:         100
(PID.TID 0000.0001)   Seconds in section "FORWARD_STEP        [MAIN_DO_LOOP]":
(PID.TID 0000.0001)           User time:   575.467226810753
(PID.TID 0000.0001)         System time:  0.000000000000000E+000
(PID.TID 0000.0001)     Wall clock time:   599.096300840378
(PID.TID 0000.0001)          No. starts:         100
(PID.TID 0000.0001)           No. stops:         100
(PID.TID 0000.0001)   Seconds in section "LOAD_FIELDS_DRIVER  [FORWARD_STEP]":
(PID.TID 0000.0001)           User time:  3.537967801094055E-003
(PID.TID 0000.0001)         System time:  0.000000000000000E+000
(PID.TID 0000.0001)     Wall clock time:  4.118204116821289E-003
(PID.TID 0000.0001)          No. starts:         100
(PID.TID 0000.0001)           No. stops:         100
(PID.TID 0000.0001)   Seconds in section "EXTERNAL_FLDS_LOAD [LOAD_FLDS_DRIVER]":
(PID.TID 0000.0001)           User time:  1.250281929969788E-003
(PID.TID 0000.0001)         System time:  0.000000000000000E+000
(PID.TID 0000.0001)     Wall clock time:  1.389503479003906E-003
(PID.TID 0000.0001)          No. starts:         100
(PID.TID 0000.0001)           No. stops:         100
(PID.TID 0000.0001)   Seconds in section "DO_ATMOSPHERIC_PHYS [FORWARD_STEP]":
(PID.TID 0000.0001)           User time:  1.148372888565063E-003
(PID.TID 0000.0001)         System time:  0.000000000000000E+000
(PID.TID 0000.0001)     Wall clock time:  1.360654830932617E-003
(PID.TID 0000.0001)          No. starts:         100
(PID.TID 0000.0001)           No. stops:         100
(PID.TID 0000.0001)   Seconds in section "DO_OCEANIC_PHYS     [FORWARD_STEP]":
(PID.TID 0000.0001)           User time:   23.5503443852067
(PID.TID 0000.0001)         System time:  0.000000000000000E+000
(PID.TID 0000.0001)     Wall clock time:   24.4194970130920
(PID.TID 0000.0001)          No. starts:         100
(PID.TID 0000.0001)           No. stops:         100
(PID.TID 0000.0001)   Seconds in section "THERMODYNAMICS      [FORWARD_STEP]":
(PID.TID 0000.0001)           User time:   12.5447056666017
(PID.TID 0000.0001)         System time:  0.000000000000000E+000
(PID.TID 0000.0001)     Wall clock time:   13.0435597896576
(PID.TID 0000.0001)          No. starts:         100
(PID.TID 0000.0001)           No. stops:         100
(PID.TID 0000.0001)   Seconds in section "DYNAMICS            [FORWARD_STEP]":
(PID.TID 0000.0001)           User time:   394.355972103775
(PID.TID 0000.0001)         System time:  0.000000000000000E+000
(PID.TID 0000.0001)     Wall clock time:   409.305626869202
(PID.TID 0000.0001)          No. starts:         100
(PID.TID 0000.0001)           No. stops:         100
(PID.TID 0000.0001)   Seconds in section "SOLVE_FOR_PRESSURE  [FORWARD_STEP]":
(PID.TID 0000.0001)           User time:   102.308458164334
(PID.TID 0000.0001)         System time:  0.000000000000000E+000
(PID.TID 0000.0001)     Wall clock time:   107.418094635010
(PID.TID 0000.0001)          No. starts:         100
(PID.TID 0000.0001)           No. stops:         100
(PID.TID 0000.0001)   Seconds in section "MOM_CORRECTION_STEP [FORWARD_STEP]":
(PID.TID 0000.0001)           User time:   18.6117506176233
(PID.TID 0000.0001)         System time:  0.000000000000000E+000
(PID.TID 0000.0001)     Wall clock time:   19.2329998016357
(PID.TID 0000.0001)          No. starts:         100
(PID.TID 0000.0001)           No. stops:         100
(PID.TID 0000.0001)   Seconds in section "INTEGR_CONTINUITY   [FORWARD_STEP]":
(PID.TID 0000.0001)           User time:   11.3112839162350
(PID.TID 0000.0001)         System time:  0.000000000000000E+000
(PID.TID 0000.0001)     Wall clock time:   11.6549501419067
(PID.TID 0000.0001)          No. starts:         100
(PID.TID 0000.0001)           No. stops:         100
(PID.TID 0000.0001)   Seconds in section "TRC_CORRECTION_STEP [FORWARD_STEP]":
(PID.TID 0000.0001)           User time:  1.690834760665894E-003
(PID.TID 0000.0001)         System time:  0.000000000000000E+000
(PID.TID 0000.0001)     Wall clock time:  1.378297805786133E-003
(PID.TID 0000.0001)          No. starts:         100
(PID.TID 0000.0001)           No. stops:         100
(PID.TID 0000.0001)   Seconds in section "BLOCKING_EXCHANGES  [FORWARD_STEP]":
(PID.TID 0000.0001)           User time:   1.05058328807354
(PID.TID 0000.0001)         System time:  0.000000000000000E+000
(PID.TID 0000.0001)     Wall clock time:   1.25279068946838
(PID.TID 0000.0001)          No. starts:         100
(PID.TID 0000.0001)           No. stops:         100
(PID.TID 0000.0001)   Seconds in section "MONITOR             [FORWARD_STEP]":
(PID.TID 0000.0001)           User time:   11.6794062405825
(PID.TID 0000.0001)         System time:  0.000000000000000E+000
(PID.TID 0000.0001)     Wall clock time:   12.5469987392426
(PID.TID 0000.0001)          No. starts:         100
(PID.TID 0000.0001)           No. stops:         100
(PID.TID 0000.0001)   Seconds in section "DO_THE_MODEL_IO     [FORWARD_STEP]":
(PID.TID 0000.0001)           User time:  1.208940148353577E-002
(PID.TID 0000.0001)         System time:  0.000000000000000E+000
(PID.TID 0000.0001)     Wall clock time:  7.778859138488770E-002
(PID.TID 0000.0001)          No. starts:         100
(PID.TID 0000.0001)           No. stops:         100
(PID.TID 0000.0001)   Seconds in section "DO_WRITE_PICKUP     [FORWARD_STEP]":
(PID.TID 0000.0001)           User time:  1.968523859977722E-002
(PID.TID 0000.0001)         System time:  0.000000000000000E+000
(PID.TID 0000.0001)     Wall clock time:  0.118135452270508
(PID.TID 0000.0001)          No. starts:         100
(PID.TID 0000.0001)           No. stops:         100
(PID.TID 0000.0001) // ======================================================
(PID.TID 0000.0001) // Tile <-> Tile communication statistics
(PID.TID 0000.0001) // ======================================================
(PID.TID 0000.0001) // o Tile number: 000001
(PID.TID 0000.0001) //         No. X exchanges =              0
(PID.TID 0000.0001) //            Max. X spins =              0
(PID.TID 0000.0001) //            Min. X spins =     1000000000
(PID.TID 0000.0001) //          Total. X spins =              0
(PID.TID 0000.0001) //            Avg. X spins =       0.00E+00
(PID.TID 0000.0001) //         No. Y exchanges =              0
(PID.TID 0000.0001) //            Max. Y spins =              0
(PID.TID 0000.0001) //            Min. Y spins =     1000000000
(PID.TID 0000.0001) //          Total. Y spins =              0
(PID.TID 0000.0001) //            Avg. Y spins =       0.00E+00
(PID.TID 0000.0001) // o Thread number: 000001
(PID.TID 0000.0001) //            No. barriers =         346620
(PID.TID 0000.0001) //      Max. barrier spins =              1
(PID.TID 0000.0001) //      Min. barrier spins =              1
(PID.TID 0000.0001) //     Total barrier spins =         346620
(PID.TID 0000.0001) //      Avg. barrier spins =       1.00E+00
PROGRAM MAIN: Execution ended Normally
